QGIS2OPENDSS_AGO30/TEST1708/AGO_LinesMV.dss
new line.MV3PAGO0 bus1=BUSMVAGO1.1.2.3 bus2=BUSMVAGO136.1.2.3 geometry=3FMV465AAAC2/0AAAC_H length=2.0830 units=m !1ph_basekV=7.22
new line.MV3PAGO1 bus1=BUSMVAGO3.1.2.3 bus2=BUSMVAGO2.1.2.3 geometry=3FMV465AAAC2/0AAAC_H length=4.6816 units=m !1ph_basekV=7.22
new line.MV3PAGO2 bus1=BUSMVAGO2.1.2.3 bus2=BUSMVAGO4.1.2.3 geometry=3FMV465AAAC2/0AAAC_H length=47.7908 units=m !1ph_basekV=7.22
new line.MV3PAGO3 bus1=BUSMVAGO46.1.2.3 bus2=BUSMVAGO3.1.2.3 geometry=3FMV465AAAC2/0AAAC_H length=1.9997 units=m !1ph_basekV=7.22
new line.MV3PAGO4 bus1=BUSMVAGO4.1.2.3 bus2=BUSMVAGO5.1.2.3 geometry=3FMV465AAAC2/0AAAC_H length=44.4422 units=m !1ph_basekV=7.22
new line.MV1PAGO5 bus1=BUSMVAGO4.1 bus2=BUSMVAGO862.1 geometry=1FMV2/0AAAC2/0AAAC_H length=26.8324 units=m !1ph_basekV=7.22
new line.MV3PAGO6 bus1=BUSMVAGO5.1.2.3 bus2=BUSMVAGO6.1.2.3 geometry=3FMV465AAAC2/0AAAC_H length=8.3124 units=m !1ph_basekV=7.22
new line.MV1PAGO7 bus1=BUSMVAGO5.3 bus2=BUSMVAGO859.3 geometry=1FMV2/0AAAC2/0AAAC_H length=11.4772 units=m !1ph_basekV=7.22
new line.MV1PAGO8 bus1=BUSMVAGO5.3 bus2=BUSMVAGO860.3 geometry=1FMV2/0AAAC2/0AAAC_H length=19.0802 units=m !1ph_basekV=7.22
new line.MV3PAGO9 bus1=BUSMVAGO6.1.2.3 bus2=BUSMVAGO7.1.2.3 geometry=3FMV4/0AAAC2/0AAAC_H length=21.8311 units=m !1ph_basekV=7.22
new line.MV3PAGO10 bus1=BUSMVAGO7.1.2.3 bus2=BUSMVAGO8.1.2.3 geometry=3FMV465AAAC2/0AAAC_H length=50.4839 units=m !1ph_basekV=7.22
new line.MV3PAGO11 bus1=BUSMVAGO7.1.2.3 bus2=BUSMVAGO9.1.2.3 geometry=3FMV2/0AAAC2/0AAAC_H length=11.6773 units=m !1ph_basekV=7.22
new line.MV3PAGO12 bus1=BUSMVAGO7.1.2.3 bus2=BUSMVAGO10.1.2.3 geometry=3FMV4/0AAAC2/0AAAC_H length=37.3000 units=m !1ph_basekV=7.22
new line.MV3PAGO13 bus1=BUSMVAGO7.1.2.3 bus2=BUSMVAGO56.1.2.3 geometry=3FMV4/0AAAC2/0AAAC_H length=18.6500 units=m !1ph_basekV=7.22
new line.MV1PAGO14 bus1=BUSMVAGO859.3 bus2=BUSMVAGO861.3 geometry=1FMV2/0AAAC2/0AAAC_H length=29.7323 units=m !1ph_basekV=7.22
new line.MV3PAGO15 bus1=BUSMVAGO8.1.2.3 bus2=BUSMVAGO12.1.2.3 geometry=3FMV465AAAC2/0AAAC_H length=41.1263 units=m !1ph_basekV=7.22
new line.MV3PAGO16 bus1=BUSMVAGO8.1.2.3 bus2=BUSMVAGO51.1.2.3 geometry=3FMV2/0AAAC2/0AAAC_H length=0.7791 units=m !1ph_basekV=7.22
new line.MV1PAGO17 bus1=BUSMVAGO8.1 bus2=BUSMVAGO2171.1 geometry=1FMV2CU_15XLP length=5.8265 units=m !1ph_basekV=7.22
new line.MV1PAGO18 bus1=BUSMVAGO861.3 bus2=BUSMVAGO863.3 geometry=1FMV2/0AAAC2/0AAAC_H length=21.1435 units=m !1ph_basekV=7.22
new line.MV1PAGO19 bus1=BUSMVAGO9.3 bus2=BUSMVAGO2165.3 geometry=1FMV2CU_15XLP length=6.6390 units=m !1ph_basekV=7.22
new line.MV3PAGO20 bus1=BUSMVAGO9.1.2.3 bus2=BUSMVAGO694.1.2.3 geometry=3FMV2CU_15XLP length=14.1748 units=m !1ph_basekV=7.22
new line.MV3PAGO21 bus1=BUSMVAGO10.1.2.3 bus2=BUSMVAGO56.1.2.3 geometry=3FMV4/0AAAC2/0AAAC_H length=18.6500 units=m !1ph_basekV=7.22
new line.MV3PAGO22 bus1=BUSMVAGO10.1.2.3 bus2=BUSMVAGO122.1.2.3 geometry=3FMV4/0AAAC2/0AAAC_H length=1.0000 units=m !1ph_basekV=7.22
new line.MV3PAGO23 bus1=BUSMVAGO12.1.2.3 bus2=BUSMVAGO11.1.2.3 geometry=3FMV2/0AAAC2/0AAAC_H length=20.5844 units=m !1ph_basekV=7.22
new line.MV3PAGO24 bus1=BUSMVAGO12.1.2.3 bus2=BUSMVAGO13.1.2.3 geometry=3FMV2/0AAAC2/0AAAC_H length=21.9614 units=m !1ph_basekV=7.22
new line.MV3PAGO25 bus1=BUSMVAGO12.1.2.3 bus2=BUSMVAGO18.1.2.3 geometry=3FMV465AAAC2/0AAAC_H length=15.3948 units=m !1ph_basekV=7.22
new line.MV3PAGO26 bus1=BUSMVAGO13.1.2.3 bus2=BUSMVAGO14.1.2.3 geometry=3FMV2/0AAAC2/0AAAC_H length=37.0944 units=m !1ph_basekV=7.22
new line.MV3PAGO27 bus1=BUSMVAGO14.1.2.3 bus2=BUSMVAGO15.1.2.3 geometry=3FMV2/0AAAC2/0AAAC_H length=40.7190 units=m !1ph_basekV=7.22
new line.MV3PAGO28 bus1=BUSMVAGO15.1.2.3 bus2=BUSMVAGO16.1.2.3 geometry=3FMV2/0AAAC2/0AAAC_H length=41.0300 units=m !1ph_basekV=7.22
new line.MV1PAGO29 bus1=BUSMVAGO15.2 bus2=BUSMVAGO2166.2 geometry=1FMV2CU_15XLP length=2.6980 units=m !1ph_basekV=7.22
new line.MV1PAGO30 bus1=BUSMVAGO862.1 bus2=BUSMVAGO2172.1 geometry=1FMV2CU_15XLP length=15.5115 units=m !1ph_basekV=7.22
new line.MV1PAGO31 bus1=BUSMVAGO863.3 bus2=BUSMVAGO864.3 geometry=1FMV2/0AAAC2/0AAAC_H length=18.5402 units=m !1ph_basekV=7.22
new line.MV1PAGO32 bus1=BUSMVAGO864.3 bus2=BUSMVAGO865.3 geometry=1FMV2/0AAAC2/0AAAC_H length=30.1032 units=m !1ph_basekV=7.22
new line.MV3PAGO33 bus1=BUSMVAGO16.1.2.3 bus2=BUSMVAGO17.1.2.3 geometry=3FMV2/0AAAC2/0AAAC_H length=36.5153 units=m !1ph_basekV=7.22
new line.MV3PAGO34 bus1=BUSMVAGO16.1.2.3 bus2=BUSMVAGO695.1.2.3 geometry=3FMV2CU_15XLP length=8.9506 units=m !1ph_basekV=7.22
new line.MV1PAGO35 bus1=BUSMVAGO865.3 bus2=BUSMVAGO866.3 geometry=1FMV2/0AAAC2/0AAAC_H length=6.5156 units=m !1ph_basekV=7.22
new line.MV1PAGO36 bus1=BUSMVAGO865.3 bus2=BUSMVAGO2176.3 geometry=1FMV2CU_15XLP length=6.0954 units=m !1ph_basekV=7.22
new line.MV1PAGO37 bus1=BUSMVAGO865.3 bus2=BUSMVAGO2177.3 geometry=1FMV2CU_15XLP length=6.5250 units=m !1ph_basekV=7.22
new line.MV1PAGO38 bus1=BUSMVAGO865.3 bus2=BUSMVAGO2178.3 geometry=1FMV2CU_15XLP length=25.5175 units=m !1ph_basekV=7.22
new line.MV3PAGO39 bus1=BUSMVAGO18.1.2.3 bus2=BUSMVAGO19.1.2.3 geometry=3FMV465AAAC2/0AAAC_H length=27.6254 units=m !1ph_basekV=7.22
new line.MV3PAGO40 bus1=BUSMVAGO19.1.2.3 bus2=BUSMVAGO20.1.2.3 geometry=3FMV465AAAC2/0AAAC_H length=38.9066 units=m !1ph_basekV=7.22
new line.MV3PAGO41 bus1=BUSMVAGO19.1.2.3 bus2=BUSMVAGO53.1.2.3 geometry=3FMV2/0AAAC2/0AAAC_H length=21.7137 units=m !1ph_basekV=7.22
new line.MV3PAGO42 bus1=BUSMVAGO20.1.2.3 bus2=BUSMVAGO21.1.2.3 geometry=3FMV465AAAC2/0AAAC_H length=40.8913 units=m !1ph_basekV=7.22
new line.MV3PAGO43 bus1=BUSMVAGO21.1.2.3 bus2=BUSMVAGO22.1.2.3 geometry=3FMV465AAAC2/0AAAC_H length=47.9140 units=m !1ph_basekV=7.22
new line.MV3PAGO44 bus1=BUSMVAGO21.1.2.3 bus2=BUSMVAGO23.1.2.3 geometry=3FMV465AAAC2/0AAAC_H length=22.2446 units=m !1ph_basekV=7.22
new line.MV3PAGO45 bus1=BUSMVAGO22.1.2.3 bus2=BUSMVAGO25.1.2.3 geometry=3FMV465AAAC2/0AAAC_H length=49.4092 units=m !1ph_basekV=7.22
new line.MV3PAGO46 bus1=BUSMVAGO22.1.2.3 bus2=BUSMVAGO52.1.2.3 geometry=3FMV2/0AAAC2/0AAAC_H length=17.9761 units=m !1ph_basekV=7.22
new line.MV3PAGO47 bus1=BUSMVAGO22.1.2.3 bus2=BUSMVAGO54.1.2.3 geometry=3FMV2/0AAAC2/0AAAC_H length=18.8378 units=m !1ph_basekV=7.22
new line.MV3PAGO48 bus1=BUSMVAGO22.1.2.3 bus2=BUSMVAGO55.1.2.3 geometry=3FMV2/0AAAC2/0AAAC_H length=17.9434 units=m !1ph_basekV=7.22
new line.MV3PAGO49 bus1=BUSMVAGO23.1.2.3 bus2=BUSMVAGO696.1.2.3 geometry=3FMV2CU_15XLP length=34.9187 units=m !1ph_basekV=7.22
new line.MV3PAGO50 bus1=BUSMVAGO25.1.2.3 bus2=BUSMVAGO24.1.2.3 geometry=3FMV465AAAC2/0AAAC_H length=4.7709 units=m !1ph_basekV=7.22
new line.MV3PAGO51 bus1=BUSMVAGO24.1.2.3 bus2=BUSMVAGO26.1.2.3 geometry=3FMV465AAAC2/0AAAC_H length=49.2721 units=m !1ph_basekV=7.22
new line.MV3PAGO52 bus1=BUSMVAGO25.1.2.3 bus2=BUSMVAGO49.1.2.3 geometry=3FMV2/0AAAC2/0AAAC_H length=20.5044 units=m !1ph_basekV=7.22
new line.MV3PAGO53 bus1=BUSMVAGO25.1.2.3 bus2=BUSMVAGO50.1.2.3 geometry=3FMV2/0AAAC2/0AAAC_H length=39.9272 units=m !1ph_basekV=7.22
new line.MV3PAGO54 bus1=BUSMVAGO26.1.2.3 bus2=BUSMVAGO27.1.2.3 geometry=3FMV2/0AAAC2/0AAAC_H length=33.3691 units=m !1ph_basekV=7.22
new line.MV3PAGO55 bus1=BUSMVAGO26.1.2.3 bus2=BUSMVAGO28.1.2.3 geometry=3FMV465AAAC2/0AAAC_H length=37.7102 units=m !1ph_basekV=7.22
new line.MV3PAGO56 bus1=BUSMVAGO27.1.2.3 bus2=BUSMVAGO29.1.2.3 geometry=3FMV2/0AAAC2/0AAAC_H length=34.6373 units=m !1ph_basekV=7.22
new line.MV3PAGO57 bus1=BUSMVAGO28.1.2.3 bus2=BUSMVAGO31.1.2.3 geometry=3FMV465AAAC2/0AAAC_H length=43.7056 units=m !1ph_basekV=7.22
new line.MV3PAGO58 bus1=BUSMVAGO29.1.2.3 bus2=BUSMVAGO30.1.2.3 geometry=3FMV2/0AAAC2/0AAAC_H length=47.9317 units=m !1ph_basekV=7.22
new line.MV3PAGO59 bus1=BUSMVAGO30.1.2.3 bus2=BUSMVAGO34.1.2.3 geometry=3FMV2/0AAAC2/0AAAC_H length=40.3782 units=m !1ph_basekV=7.22
new line.MV1PAGO60 bus1=BUSMVAGO31.1 bus2=BUSMVAGO867.1 geometry=1FMV2/0AAAC2/0AAAC_H length=32.0228 units=m !1ph_basekV=7.22
new line.MV3PAGO61 bus1=BUSMVAGO31.1.2.3 bus2=BUSMVAGO43.1.2.3 geometry=3FMV465AAAC2/0AAAC_H length=0.9996 units=m !1ph_basekV=7.22
new line.MV1PAGO62 bus1=BUSMVAGO31.2 bus2=BUSMVAGO871.2 geometry=1FMV2/0AAAC2/0AAAC_H length=9.3773 units=m !1ph_basekV=7.22
new line.MV3PAGO63 bus1=BUSMVAGO33.1.2.3 bus2=BUSMVAGO32.1.2.3 geometry=3FMV465AAAC2/0AAAC_H length=36.9585 units=m !1ph_basekV=7.22
new line.MV3PAGO64 bus1=BUSMVAGO32.1.2.3 bus2=BUSMVAGO37.1.2.3 geometry=3FMV465AAAC2/0AAAC_H length=51.0862 units=m !1ph_basekV=7.22
new line.MV3PAGO65 bus1=BUSMVAGO44.1.2.3 bus2=BUSMVAGO33.1.2.3 geometry=3FMV465AAAC2/0AAAC_H length=11.3693 units=m !1ph_basekV=7.22
new line.MV3PAGO66 bus1=BUSMVAGO34.1.2.3 bus2=BUSMVAGO35.1.2.3 geometry=3FMV2/0AAAC2/0AAAC_H length=40.3607 units=m !1ph_basekV=7.22
new line.MV3PAGO67 bus1=BUSMVAGO35.1.2.3 bus2=BUSMVAGO36.1.2.3 geometry=3FMV2/0AAAC2/0AAAC_H length=37.4287 units=m !1ph_basekV=7.22
new line.MV1PAGO68 bus1=BUSMVAGO867.1 bus2=BUSMVAGO869.1 geometry=1FMV1/0AAC2/0AAAC_H length=0.9999 units=m !1ph_basekV=7.22
new line.MV3PAGO69 bus1=BUSMVAGO37.1.2.3 bus2=BUSMVAGO38.1.2.3 geometry=3FMV465AAAC2/0AAAC_H length=40.2484 units=m !1ph_basekV=7.22
new line.MV1PAGO70 bus1=BUSMVAGO37.1 bus2=BUSMVAGO2181.1 geometry=1FMV2CU_15XLP length=17.9637 units=m !1ph_basekV=7.22
new line.MV1PAGO71 bus1=BUSMVAGO869.1 bus2=BUSMVAGO868.1 geometry=1FMV2/0AAAC2/0AAAC_H length=54.5421 units=m !1ph_basekV=7.22
new line.MV1PAGO72 bus1=BUSMVAGO868.1 bus2=BUSMVAGO870.1 geometry=1FMV2/0AAAC2/0AAAC_H length=57.2456 units=m !1ph_basekV=7.22
new line.MV3PAGO73 bus1=BUSMVAGO38.1.2.3 bus2=BUSMVAGO39.1.2.3 geometry=3FMV2/0AAAC2/0AAAC_H length=20.7128 units=m !1ph_basekV=7.22
new line.MV3PAGO74 bus1=BUSMVAGO38.1.2.3 bus2=BUSMVAGO40.1.2.3 geometry=3FMV465AAAC2/0AAAC_H length=40.1659 units=m !1ph_basekV=7.22
new line.MV3PAGO75 bus1=BUSMVAGO39.1.2.3 bus2=BUSMVAGO697.1.2.3 geometry=3FMV2CU_15XLP length=46.8298 units=m !1ph_basekV=7.22
new line.MV3PAGO76 bus1=BUSMVAGO40.1.2.3 bus2=BUSMVAGO41.1.2.3 geometry=3FMV465AAAC2/0AAAC_H length=46.4831 units=m !1ph_basekV=7.22
new line.MV3PAGO77 bus1=BUSMVAGO41.1.2.3 bus2=BUSMVAGO42.1.2.3 geometry=3FMV465AAAC2/0AAAC_H length=32.3477 units=m !1ph_basekV=7.22
new line.MV3PAGO78 bus1=BUSMVAGO41.1.2.3 bus2=BUSMVAGO48.1.2.3 geometry=3FMV465AAAC2/0AAAC_H length=77.7961 units=m !1ph_basekV=7.22
new line.MV3PAGO79 bus1=BUSMVAGO41.1.2.3 bus2=BUSMVAGO303.1.2.3 geometry=3FMV465AAAC2/0AAAC_H length=38.8981 units=m !1ph_basekV=7.22
new line.MV3PAGO80 bus1=BUSMVAGO42.1.2.3 bus2=BUSMVAGO45.1.2.3 geometry=3FMV2/0AAAC2/0AAAC_H length=8.9634 units=m !1ph_basekV=7.22
new line.MV3PAGO81 bus1=BUSMVAGO43.1.2.3 bus2=BUSMVAGO44.1.2.3 geometry=3FMV465AAAC2/0AAAC_H length=0.9996 units=m !1ph_basekV=7.22
new line.MV3PAGO82 bus1=BUSMVAGO45.1.2.3 bus2=BUSMVAGO701.1.2.3 geometry=3FMV2CU_15XLP length=9.3478 units=m !1ph_basekV=7.22
new line.MV3PAGO83 bus1=BUSMVAGO47.1.2.3 bus2=BUSMVAGO46.1.2.3 geometry=3FMV465AAAC2/0AAAC_H length=42.1021 units=m !1ph_basekV=7.22
new line.MV3PAGO84 bus1=BUSMVAGO46.1.2.3 bus2=BUSMVAGO179.1.2.3 geometry=3FMV465AAAC2/0AAAC_H length=21.0510 units=m !1ph_basekV=7.22
new line.MV3PAGO85 bus1=BUSMVAGO160.1.2.3 bus2=BUSMVAGO47.1.2.3 geometry=3FMV465AAAC2/0AAAC_H length=50.4963 units=m !1ph_basekV=7.22
new line.MV3PAGO86 bus1=BUSMVAGO47.1.2.3 bus2=BUSMVAGO179.1.2.3 geometry=3FMV465AAAC2/0AAAC_H length=21.0510 units=m !1ph_basekV=7.22
new line.MV1PAGO87 bus1=BUSMVAGO48.1 bus2=BUSMVAGO1103.1 geometry=1FMV2AAAC2/0AAAC_H length=7.3850 units=m !1ph_basekV=7.22
new line.MV3PAGO88 bus1=BUSMVAGO48.1.2.3 bus2=BUSMVAGO259.1.2.3 geometry=3FMV465AAAC2/0AAAC_H length=18.9447 units=m !1ph_basekV=7.22
new line.MV3PAGO89 bus1=BUSMVAGO48.1.2.3 bus2=BUSMVAGO303.1.2.3 geometry=3FMV465AAAC2/0AAAC_H length=38.8981 units=m !1ph_basekV=7.22
new line.MV3PAGO90 bus1=BUSMVAGO48.1.2.3 bus2=BUSMVAGO304.1.2.3 geometry=3FMV465AAAC2/0AAAC_H length=18.2137 units=m !1ph_basekV=7.22
new line.MV3PAGO91 bus1=BUSMVAGO50.1.2.3 bus2=BUSMVAGO702.1.2.3 geometry=3FMV2CU_15XLP length=4.0986 units=m !1ph_basekV=7.22
new line.MV3PAGO92 bus1=BUSMVAGO58.1.2.3 bus2=BUSMVAGO57.1.2.3 geometry=3FMV4/0AAAC2/0AAAC_H length=44.0815 units=m !1ph_basekV=7.22
new line.MV3PAGO93 bus1=BUSMVAGO57.1.2.3 bus2=BUSMVAGO60.1.2.3 geometry=3FMV4/0AAAC2/0AAAC_H length=18.3837 units=m !1ph_basekV=7.22
new line.MV3PAGO94 bus1=BUSMVAGO57.1.2.3 bus2=BUSMVAGO703.1.2.3 geometry=3FMV2CU_15XLP length=17.6340 units=m !1ph_basekV=7.22
new line.MV3PAGO95 bus1=BUSMVAGO123.1.2.3 bus2=BUSMVAGO58.1.2.3 geometry=3FMV4/0AAAC2/0AAAC_H length=10.9201 units=m !1ph_basekV=7.22
new line.MV3PAGO96 bus1=BUSMVAGO60.1.2.3 bus2=BUSMVAGO59.1.2.3 geometry=3FMV4/0AAAC2/0AAAC_H length=24.1810 units=m !1ph_basekV=7.22
new line.MV3PAGO97 bus1=BUSMVAGO59.1.2.3 bus2=BUSMVAGO61.1.2.3 geometry=3FMV4/0AAAC2/0AAAC_H length=40.2686 units=m !1ph_basekV=7.22
new line.MV3PAGO98 bus1=BUSMVAGO60.1.2.3 bus2=BUSMVAGO63.1.2.3 geometry=3FMV4/0AAAC2/0AAAC_H length=15.6665 units=m !1ph_basekV=7.22
new line.MV1PAGO99 bus1=BUSMVAGO60.3 bus2=BUSMVAGO874.3 geometry=1FMV2/0AAAC2/0AAAC_H length=31.6208 units=m !1ph_basekV=7.22
new line.MV3PAGO100 bus1=BUSMVAGO61.1.2.3 bus2=BUSMVAGO62.1.2.3 geometry=3FMV4/0AAAC2/0AAAC_H length=42.3433 units=m !1ph_basekV=7.22
new line.MV3PAGO101 bus1=BUSMVAGO62.1.2.3 bus2=BUSMVAGO64.1.2.3 geometry=3FMV4/0AAAC2/0AAAC_H length=42.9198 units=m !1ph_basekV=7.22
new line.MV1PAGO102 bus1=BUSMVAGO62.3 bus2=BUSMVAGO942.3 geometry=1FMV2/0AAAC2/0AAAC_H length=1.0000 units=m !1ph_basekV=7.22
new line.MV1PAGO103 bus1=BUSMVAGO873.3 bus2=BUSMVAGO872.3 geometry=1FMV2/0AAAC2/0AAAC_H length=49.0885 units=m !1ph_basekV=7.22
new line.MV1PAGO104 bus1=BUSMVAGO872.3 bus2=BUSMVAGO880.3 geometry=1FMV2/0AAAC2/0AAAC_H length=0.9844 units=m !1ph_basekV=7.22
new line.MV1PAGO105 bus1=BUSMVAGO942.3 bus2=BUSMVAGO873.3 geometry=1FMV2/0AAAC2/0AAAC_H length=1.0000 units=m !1ph_basekV=7.22
new line.MV1PAGO106 bus1=BUSMVAGO63.3 bus2=BUSMVAGO945.3 geometry=1FMV2/0AAAC2/0AAAC_H length=1.9667 units=m !1ph_basekV=7.22
new line.MV3PAGO107 bus1=BUSMVAGO64.1.2.3 bus2=BUSMVAGO65.1.2.3 geometry=3FMV4/0AAAC2/0AAAC_H length=47.9943 units=m !1ph_basekV=7.22
new line.MV3PAGO108 bus1=BUSMVAGO65.1.2.3 bus2=BUSMVAGO66.1.2.3 geometry=3FMV4/0AAAC2/0AAAC_H length=48.4509 units=m !1ph_basekV=7.22
new line.MV3PAGO109 bus1=BUSMVAGO66.1.2.3 bus2=BUSMVAGO67.1.2.3 geometry=3FMV4/0AAAC2/0AAAC_H length=52.3190 units=m !1ph_basekV=7.22
new line.MV1PAGO110 bus1=BUSMVAGO67.1 bus2=BUSMVAGO878.1 geometry=1FMV2/0AAAC2/0AAAC_H length=34.3207 units=m !1ph_basekV=7.22
new line.MV3PAGO111 bus1=BUSMVAGO67.1.2.3 bus2=BUSMVAGO68.1.2.3 geometry=3FMV4/0AAAC2/0AAAC_H length=40.7926 units=m !1ph_basekV=7.22
new line.MV3PAGO112 bus1=BUSMVAGO67.1.2.3 bus2=BUSMVAGO706.1.2.3 geometry=3FMV2CU_15XLP length=6.8663 units=m !1ph_basekV=7.22
new line.MV1PAGO113 bus1=BUSMVAGO876.3 bus2=BUSMVAGO875.3 geometry=1FMV2/0AAAC2/0AAAC_H length=42.6020 units=m !1ph_basekV=7.22
new line.MV1PAGO114 bus1=BUSMVAGO875.3 bus2=BUSMVAGO877.3 geometry=1FMV2/0AAAC2/0AAAC_H length=14.5696 units=m !1ph_basekV=7.22
new line.MV1PAGO115 bus1=BUSMVAGO945.3 bus2=BUSMVAGO876.3 geometry=1FMV2/0AAAC2/0AAAC_H length=1.9997 units=m !1ph_basekV=7.22
new line.MV1PAGO116 bus1=BUSMVAGO877.3 bus2=BUSMVAGO883.3 geometry=1FMV2/0AAAC2/0AAAC_H length=42.7990 units=m !1ph_basekV=7.22
new line.MV1PAGO117 bus1=BUSMVAGO877.3 bus2=BUSMVAGO884.3 geometry=1FMV2/0AAAC2/0AAAC_H length=14.4664 units=m !1ph_basekV=7.22
new line.MV1PAGO118 bus1=BUSMVAGO877.3 bus2=BUSMVAGO886.3 geometry=1FMV2/0AAAC2/0AAAC_H length=24.7181 units=m !1ph_basekV=7.22
new line.MV1PAGO119 bus1=BUSMVAGO878.1 bus2=BUSMVAGO885.1 geometry=1FMV2/0CU2/0AAAC_H length=68.9597 units=m !1ph_basekV=7.22
new line.MV1PAGO120 bus1=BUSMVAGO880.3 bus2=BUSMVAGO879.3 geometry=1FMV2/0AAAC2/0AAAC_H length=70.1588 units=m !1ph_basekV=7.22
new line.MV1PAGO121 bus1=BUSMVAGO879.3 bus2=BUSMVAGO881.3 geometry=1FMV2/0AAAC2/0AAAC_H length=48.7507 units=m !1ph_basekV=7.22
new line.MV1PAGO122 bus1=BUSMVAGO879.3 bus2=BUSMVAGO888.3 geometry=1FMV2/0AAAC2/0AAAC_H length=35.1996 units=m !1ph_basekV=7.22
new line.MV1PAGO123 bus1=BUSMVAGO881.3 bus2=BUSMVAGO882.3 geometry=1FMV2/0AAAC2/0AAAC_H length=45.5996 units=m !1ph_basekV=7.22
new line.MV1PAGO124 bus1=BUSMVAGO882.3 bus2=BUSMVAGO944.3 geometry=1FMV2/0AAAC2/0AAAC_H length=15.9651 units=m !1ph_basekV=7.22
new line.MV1PAGO125 bus1=BUSMVAGO883.3 bus2=BUSMVAGO889.3 geometry=1FMV2/0AAAC2/0AAAC_H length=52.5474 units=m !1ph_basekV=7.22
new line.MV1PAGO126 bus1=BUSMVAGO884.3 bus2=BUSMVAGO2183.3 geometry=1FMV2CU_15XLP length=14.6577 units=m !1ph_basekV=7.22
new line.MV1PAGO127 bus1=BUSMVAGO884.3 bus2=BUSMVAGO2184.3 geometry=1FMV2CU_15XLP length=15.8698 units=m !1ph_basekV=7.22
new line.MV3PAGO128 bus1=BUSMVAGO68.1.2.3 bus2=BUSMVAGO71.1.2.3 geometry=3FMV4/0AAAC2/0AAAC_H length=40.7790 units=m !1ph_basekV=7.22
new line.MV1PAGO129 bus1=BUSMVAGO885.1 bus2=BUSMVAGO2182.1 geometry=1FMV2CU_15XLP length=8.2642 units=m !1ph_basekV=7.22
new line.MV1PAGO130 bus1=BUSMVAGO885.1 bus2=BUSMVAGO2185.1 geometry=1FMV2CU_15XLP length=7.1753 units=m !1ph_basekV=7.22
new line.MV1PAGO131 bus1=BUSMVAGO885.1 bus2=BUSMVAGO2186.1 geometry=1FMV2CU_15XLP length=39.5696 units=m !1ph_basekV=7.22
new line.MV1PAGO132 bus1=BUSMVAGO886.3 bus2=BUSMVAGO887.3 geometry=1FMV2/0AAAC2/0AAAC_H length=60.9548 units=m !1ph_basekV=7.22
new line.MV1PAGO133 bus1=BUSMVAGO887.3 bus2=BUSMVAGO892.3 geometry=1FMV2/0AAAC2/0AAAC_H length=38.5250 units=m !1ph_basekV=7.22
new line.MV1PAGO134 bus1=BUSMVAGO888.3 bus2=BUSMVAGO897.3 geometry=1FMV2/0AAAC2/0AAAC_H length=43.0734 units=m !1ph_basekV=7.22
new line.MV1PAGO135 bus1=BUSMVAGO889.3 bus2=BUSMVAGO890.3 geometry=1FMV2/0AAAC2/0AAAC_H length=45.6873 units=m !1ph_basekV=7.22
new line.MV1PAGO136 bus1=BUSMVAGO890.3 bus2=BUSMVAGO891.3 geometry=1FMV2/0AAAC2/0AAAC_H length=51.8680 units=m !1ph_basekV=7.22
new line.MV1PAGO137 bus1=BUSMVAGO891.3 bus2=BUSMVAGO896.3 geometry=1FMV2/0AAAC2/0AAAC_H length=32.1791 units=m !1ph_basekV=7.22
new line.MV1PAGO138 bus1=BUSMVAGO892.3 bus2=BUSMVAGO893.3 geometry=1FMV2/0AAAC2/0AAAC_H length=37.2601 units=m !1ph_basekV=7.22
new line.MV1PAGO139 bus1=BUSMVAGO893.3 bus2=BUSMVAGO894.3 geometry=1FMV2/0AAAC2/0AAAC_H length=42.0361 units=m !1ph_basekV=7.22
new line.MV1PAGO140 bus1=BUSMVAGO894.3 bus2=BUSMVAGO895.3 geometry=1FMV2/0AAAC2/0AAAC_H length=54.9776 units=m !1ph_basekV=7.22
new line.MV1PAGO141 bus1=BUSMVAGO895.3 bus2=BUSMVAGO898.3 geometry=1FMV2/0AAAC2/0AAAC_H length=42.6872 units=m !1ph_basekV=7.22
new line.MV3PAGO142 bus1=BUSMVAGO70.1.2.3 bus2=BUSMVAGO69.1.2.3 geometry=3FMV2/0AAAC2/0AAAC_H length=6.2710 units=m !1ph_basekV=7.22
new line.MV3PAGO143 bus1=BUSMVAGO708.1.2.3 bus2=BUSMVAGO70.1.2.3 geometry=3FMV2CU_15XLP length=11.7348 units=m !1ph_basekV=7.22
new line.MV3PAGO144 bus1=BUSMVAGO71.1.2.3 bus2=BUSMVAGO72.1.2.3 geometry=3FMV4/0AAAC2/0AAAC_H length=53.3630 units=m !1ph_basekV=7.22
new line.MV3PAGO145 bus1=BUSMVAGO72.1.2.3 bus2=BUSMVAGO73.1.2.3 geometry=3FMV4/0AAAC2/0AAAC_H length=49.8179 units=m !1ph_basekV=7.22
new line.MV3PAGO146 bus1=BUSMVAGO72.1.2.3 bus2=BUSMVAGO134.1.2.3 geometry=3FMV1/0AAAC2/0AAAC_H length=34.2879 units=m !1ph_basekV=7.22
new line.MV1PAGO147 bus1=BUSMVAGO897.3 bus2=BUSMVAGO900.3 geometry=1FMV2/0AAAC2/0AAAC_H length=44.4290 units=m !1ph_basekV=7.22
new line.MV1PAGO148 bus1=BUSMVAGO898.3 bus2=BUSMVAGO904.3 geometry=1FMV2/0AAAC2/0AAAC_H length=41.8777 units=m !1ph_basekV=7.22
new line.MV3PAGO149 bus1=BUSMVAGO73.1.2.3 bus2=BUSMVAGO75.1.2.3 geometry=3FMV4/0AAAC2/0AAAC_H length=25.4009 units=m !1ph_basekV=7.22
new line.MV3PAGO150 bus1=BUSMVAGO73.1.2.3 bus2=BUSMVAGO718.1.2.3 geometry=3FMV2CU_15XLP length=1.0001 units=m !1ph_basekV=7.22
new line.MV1PAGO151 bus1=BUSMVAGO900.3 bus2=BUSMVAGO899.3 geometry=1FMV2/0AAAC2/0AAAC_H length=1.0233 units=m !1ph_basekV=7.22
new line.MV1PAGO152 bus1=BUSMVAGO899.3 bus2=BUSMVAGO902.3 geometry=1FMV2/0AAAC2/0AAAC_H length=24.4687 units=m !1ph_basekV=7.22
new line.MV1PAGO153 bus1=BUSMVAGO902.3 bus2=BUSMVAGO901.3 geometry=1FMV2/0AAAC2/0AAAC_H length=22.3152 units=m !1ph_basekV=7.22
new line.MV1PAGO154 bus1=BUSMVAGO901.3 bus2=BUSMVAGO903.3 geometry=1FMV2/0AAAC2/0AAAC_H length=39.7106 units=m !1ph_basekV=7.22
new line.MV1PAGO155 bus1=BUSMVAGO903.3 bus2=BUSMVAGO905.3 geometry=1FMV2/0AAAC2/0AAAC_H length=45.4033 units=m !1ph_basekV=7.22
new line.MV1PAGO156 bus1=BUSMVAGO903.3 bus2=BUSMVAGO907.3 geometry=1FMV2/0AAAC2/0AAAC_H length=38.3477 units=m !1ph_basekV=7.22
new line.MV1PAGO157 bus1=BUSMVAGO905.3 bus2=BUSMVAGO906.3 geometry=1FMV2/0AAAC2/0AAAC_H length=53.4875 units=m !1ph_basekV=7.22
new line.MV1PAGO158 bus1=BUSMVAGO906.3 bus2=BUSMVAGO946.3 geometry=1FMV2/0AAAC2/0AAAC_H length=0.5637 units=m !1ph_basekV=7.22
new line.MV3PAGO159 bus1=BUSMVAGO75.1.2.3 bus2=BUSMVAGO74.1.2.3 geometry=3FMV4/0AAAC2/0AAAC_H length=29.8881 units=m !1ph_basekV=7.22
new line.MV3PAGO160 bus1=BUSMVAGO75.1.2.3 bus2=BUSMVAGO76.1.2.3 geometry=3FMV4/0AAAC2/0AAAC_H length=24.6175 units=m !1ph_basekV=7.22
new line.MV3PAGO161 bus1=BUSMVAGO75.1.2.3 bus2=BUSMVAGO77.1.2.3 geometry=3FMV4/0AAAC2/0AAAC_H length=17.9059 units=m !1ph_basekV=7.22
new line.MV3PAGO162 bus1=BUSMVAGO76.1.2.3 bus2=BUSMVAGO79.1.2.3 geometry=3FMV2/0AAAC2/0AAAC_H length=2.1072 units=m !1ph_basekV=7.22
new line.MV3PAGO163 bus1=BUSMVAGO77.1.2.3 bus2=BUSMVAGO81.1.2.3 geometry=3FMV4/0AAAC2/0AAAC_H length=50.6088 units=m !1ph_basekV=7.22
new line.MV3PAGO164 bus1=BUSMVAGO77.1.2.3 bus2=BUSMVAGO91.1.2.3 geometry=3FMV4/0AAAC2/0AAAC_H length=46.8903 units=m !1ph_basekV=7.22
new line.MV3PAGO165 bus1=BUSMVAGO79.1.2.3 bus2=BUSMVAGO78.1.2.3 geometry=3FMV4/0AAAC2/0AAAC_H length=52.7450 units=m !1ph_basekV=7.22
new line.MV3PAGO166 bus1=BUSMVAGO78.1.2.3 bus2=BUSMVAGO80.1.2.3 geometry=3FMV4/0AAAC2/0AAAC_H length=53.2370 units=m !1ph_basekV=7.22
new line.MV1PAGO167 bus1=BUSMVAGO80.1 bus2=BUSMVAGO908.1 geometry=1FMV2/0AAAC2/0AAAC_H length=36.8559 units=m !1ph_basekV=7.22
new line.MV3PAGO168 bus1=BUSMVAGO80.1.2.3 bus2=BUSMVAGO89.1.2.3 geometry=3FMV4/0AAAC2/0AAAC_H length=40.7569 units=m !1ph_basekV=7.22
new line.MV1PAGO169 bus1=BUSMVAGO907.3 bus2=BUSMVAGO949.3 geometry=1FMV2/0AAAC2/0AAAC_H length=11.9516 units=m !1ph_basekV=7.22
new line.MV3PAGO170 bus1=BUSMVAGO81.1.2.3 bus2=BUSMVAGO82.1.2.3 geometry=3FMV4/0AAAC2/0AAAC_H length=38.2190 units=m !1ph_basekV=7.22
new line.MV3PAGO171 bus1=BUSMVAGO82.1.2.3 bus2=BUSMVAGO83.1.2.3 geometry=3FMV4/0AAAC2/0AAAC_H length=36.9386 units=m !1ph_basekV=7.22
new line.MV3PAGO172 bus1=BUSMVAGO83.1.2.3 bus2=BUSMVAGO86.1.2.3 geometry=3FMV4/0AAAC2/0AAAC_H length=41.5447 units=m !1ph_basekV=7.22
new line.MV3PAGO173 bus1=BUSMVAGO85.1.2.3 bus2=BUSMVAGO84.1.2.3 geometry=3FMV4/0AAAC2/0AAAC_H length=46.4829 units=m !1ph_basekV=7.22
new line.MV3PAGO174 bus1=BUSMVAGO84.1.2.3 bus2=BUSMVAGO93.1.2.3 geometry=3FMV4/0AAAC2/0AAAC_H length=28.5668 units=m !1ph_basekV=7.22
new line.MV1PAGO175 bus1=BUSMVAGO84.2 bus2=BUSMVAGO2198.2 geometry=1FMV2/0CU_15XLP length=2.9858 units=m !1ph_basekV=7.22
new line.MV3PAGO176 bus1=BUSMVAGO709.1.2.3 bus2=BUSMVAGO85.1.2.3 geometry=3FMV2CU_15XLP length=29.1706 units=m !1ph_basekV=7.22
new line.MV3PAGO177 bus1=BUSMVAGO86.1.2.3 bus2=BUSMVAGO88.1.2.3 geometry=3FMV4/0AAAC2/0AAAC_H length=34.5666 units=m !1ph_basekV=7.22
new line.MV3PAGO178 bus1=BUSMVAGO88.1.2.3 bus2=BUSMVAGO87.1.2.3 geometry=3FMV4/0AAAC2/0AAAC_H length=34.9506 units=m !1ph_basekV=7.22
new line.MV3PAGO179 bus1=BUSMVAGO87.1.2.3 bus2=BUSMVAGO99.1.2.3 geometry=3FMV2/0AAAC2/0AAAC_H length=26.1878 units=m !1ph_basekV=7.22
new line.MV3PAGO180 bus1=BUSMVAGO87.1.2.3 bus2=BUSMVAGO722.1.2.3 geometry=3FMV2CU_15XLP length=3.9221 units=m !1ph_basekV=7.22
new line.MV1PAGO181 bus1=BUSMVAGO908.1 bus2=BUSMVAGO909.1 geometry=1FMV2/0AAAC2/0AAAC_H length=43.6835 units=m !1ph_basekV=7.22
new line.MV3PAGO182 bus1=BUSMVAGO89.1.2.3 bus2=BUSMVAGO90.1.2.3 geometry=3FMV4/0AAAC2/0AAAC_H length=46.9961 units=m !1ph_basekV=7.22
new line.MV3PAGO183 bus1=BUSMVAGO90.1.2.3 bus2=BUSMVAGO102.1.2.3 geometry=3FMV4/0AAAC2/0AAAC_H length=55.2089 units=m !1ph_basekV=7.22
new line.MV3PAGO184 bus1=BUSMVAGO91.1.2.3 bus2=BUSMVAGO92.1.2.3 geometry=3FMV4/0AAAC2/0AAAC_H length=40.6092 units=m !1ph_basekV=7.22
new line.MV3PAGO185 bus1=BUSMVAGO91.1.2.3 bus2=BUSMVAGO132.1.2.3 geometry=3FMV2/0AAAC2/0AAAC_H length=28.2807 units=m !1ph_basekV=7.22
new line.MV3PAGO186 bus1=BUSMVAGO92.1.2.3 bus2=BUSMVAGO98.1.2.3 geometry=3FMV2AAAC2/0AAAC_H length=27.3017 units=m !1ph_basekV=7.22
new line.MV3PAGO187 bus1=BUSMVAGO92.1.2.3 bus2=BUSMVAGO100.1.2.3 geometry=3FMV4/0AAAC2/0AAAC_H length=53.1134 units=m !1ph_basekV=7.22
new line.MV3PAGO188 bus1=BUSMVAGO92.1.2.3 bus2=BUSMVAGO723.1.2.3 geometry=3FMV2CU_15XLP length=2.2433 units=m !1ph_basekV=7.22
new line.MV3PAGO189 bus1=BUSMVAGO93.1.2.3 bus2=BUSMVAGO96.1.2.3 geometry=3FMV4/0AAAC2/0AAAC_H length=29.2191 units=m !1ph_basekV=7.22
new line.MV1PAGO190 bus1=BUSMVAGO93.1 bus2=BUSMVAGO916.1 geometry=1FMV2AAAC2/0AAAC_H length=12.2980 units=m !1ph_basekV=7.22
new line.MV3PAGO191 bus1=BUSMVAGO95.1.2.3 bus2=BUSMVAGO94.1.2.3 geometry=3FMV4/0AAAC2/0AAAC_H length=38.5664 units=m !1ph_basekV=7.22
new line.MV3PAGO192 bus1=BUSMVAGO94.1.2.3 bus2=BUSMVAGO112.1.2.3 geometry=3FMV4/0AAAC2/0AAAC_H length=12.6255 units=m !1ph_basekV=7.22
new line.MV3PAGO193 bus1=BUSMVAGO126.1.2.3 bus2=BUSMVAGO95.1.2.3 geometry=3FMV4/0AAAC2/0AAAC_H length=2.0001 units=m !1ph_basekV=7.22
new line.MV3PAGO194 bus1=BUSMVAGO96.1.2.3 bus2=BUSMVAGO97.1.2.3 geometry=3FMV4/0AAAC2/0AAAC_H length=41.6291 units=m !1ph_basekV=7.22
new line.MV3PAGO195 bus1=BUSMVAGO96.1.2.3 bus2=BUSMVAGO711.1.2.3 geometry=3FMV2/0CU_15XLP length=19.1397 units=m !1ph_basekV=7.22
new line.MV1PAGO196 bus1=BUSMVAGO97.1 bus2=BUSMVAGO915.1 geometry=1FMV2AAAC2/0AAAC_H length=13.0551 units=m !1ph_basekV=7.22
new line.MV3PAGO197 bus1=BUSMVAGO97.1.2.3 bus2=BUSMVAGO104.1.2.3 geometry=3FMV4/0AAAC2/0AAAC_H length=50.5539 units=m !1ph_basekV=7.22
new line.MV3PAGO198 bus1=BUSMVAGO98.1.2.3 bus2=BUSMVAGO133.1.2.3 geometry=3FMV1/0AAAC2/0AAAC_H length=9.1840 units=m !1ph_basekV=7.22
new line.MV3PAGO199 bus1=BUSMVAGO98.1.2.3 bus2=BUSMVAGO135.1.2.3 geometry=3FMV1/0AAAC2/0AAAC_H length=19.1772 units=m !1ph_basekV=7.22
...
