QGIS2OPENDSS_AGO30/TEST1708/AGO_Transformers.dss
//Transformadores Monofasicos
new transformer.AGO1P_1 phases=1 windings=3 Xhl=1.80 Xht=1.80 Xlt=1.20 %Rs=[0.50 1.00 1.00] %noloadloss=0.38 %imag=1.40 Buses=[BUSMVAGO864.3.0 BUSLVAGO1.1.0 BUSLVAGO1.0.2] kvs=[7.22 0.12 0.12] kVAs=[75.0 75.0 75.0] conns=[wye wye wye] Taps=[1.00, 1, 1] normhkva=75.0 !GroupMV=NULL !GroupLV=NULL
new transformer.AGO1P_2 phases=1 windings=3 Xhl=1.86 Xht=1.86 Xlt=1.24 %Rs=[0.55 1.10 1.10]  %noloadloss=0.37 %imag=1.00 Buses=[BUSMVAGO22.3.0 BUSLVAGO2.1.0 BUSLVAGO2.0.2] kvs=[7.22 0.12 0.12] kVAs=[50.0 50.0 50.0] conns=[wye wye wye] Taps=[1.00, 1, 1] normhkva=50.0 !GroupMV=NULL !GroupLV=NULL
new transformer.AGO1P_3 phases=1 windings=3 Xhl=2.14 Xht=2.14 Xlt=1.43 %Rs=[0.45 0.90 0.90] %noloadloss=0.36 %imag=1.30 Buses=[BUSMVAGO694.3.0 BUSLVAGO3.1.0 BUSLVAGO3.0.2] kvs=[7.22 0.12 0.12] kVAs=[100.0 100.0 100.0] conns=[wye wye wye] Taps=[1.00, 1, 1] normhkva=100.0 !GroupMV=NULL !GroupLV=NULL
new transformer.AGO1P_4 phases=1 windings=3 Xhl=1.86 Xht=1.86 Xlt=1.24 %Rs=[0.55 1.10 1.10]  %noloadloss=0.37 %imag=1.00 Buses=[BUSMVAGO870.1.0 BUSLVAGO4.1.0 BUSLVAGO4.0.2] kvs=[7.22 0.12 0.12] kVAs=[50.0 50.0 50.0] conns=[wye wye wye] Taps=[1.00, 1, 1] normhkva=50.0 !GroupMV=NULL !GroupLV=NULL
new transformer.AGO1P_5 phases=1 windings=3 Xhl=1.71 Xht=1.71 Xlt=1.14 %Rs=[0.55 1.10 1.10] %noloadloss=0.44 %imag=1.10 Buses=[BUSMVAGO40.2.0 BUSLVAGO5.1.0 BUSLVAGO5.0.2] kvs=[7.22 0.12 0.12] kVAs=[37.5 37.5 37.5] conns=[wye wye wye] Taps=[1.00, 1, 1] normhkva=37.5 !GroupMV=NULL !GroupLV=NULL
new transformer.AGO1P_6 phases=1 windings=3 Xhl=1.80 Xht=1.80 Xlt=1.20 %Rs=[0.50 1.00 1.00] %noloadloss=0.38 %imag=1.40 Buses=[BUSMVAGO36.3.0 BUSLVAGO6.1.0 BUSLVAGO6.0.2] kvs=[7.22 0.12 0.12] kVAs=[75.0 75.0 75.0] conns=[wye wye wye] Taps=[1.00, 1, 1] normhkva=75.0 !GroupMV=NULL !GroupLV=NULL
new transformer.AGO1P_7 phases=1 windings=3 Xhl=1.71 Xht=1.71 Xlt=1.14 %Rs=[0.55 1.10 1.10] %noloadloss=0.44 %imag=1.10 Buses=[BUSMVAGO2176.3.0 BUSLVAGO7.1.0 BUSLVAGO7.0.2] kvs=[7.22 0.12 0.12] kVAs=[37.5 37.5 37.5] conns=[wye wye wye] Taps=[1.00, 1, 1] normhkva=37.5 !GroupMV=NULL !GroupLV=NULL
new transformer.AGO1P_8 phases=1 windings=3 Xhl=1.49 Xht=1.49 Xlt=1.00 %Rs=[0.65 1.30 1.30] %noloadloss=0.47 %imag=1.30 Buses=[BUSMVAGO2177.3.0 BUSLVAGO8.1.0 BUSLVAGO8.0.2] kvs=[7.22 0.12 0.12] kVAs=[25.0 25.0 25.0] conns=[wye wye wye] Taps=[1.00, 1, 1] normhkva=25.0 !GroupMV=NULL !GroupLV=NULL
new transformer.AGO1P_9 phases=1 windings=3 Xhl=1.86 Xht=1.86 Xlt=1.24 %Rs=[0.55 1.10 1.10]  %noloadloss=0.37 %imag=1.00 Buses=[BUSMVAGO699.3.0 BUSLVAGO9.1.0 BUSLVAGO9.0.2] kvs=[7.22 0.12 0.12] kVAs=[50.0 50.0 50.0] conns=[wye wye wye] Taps=[1.00, 1, 1] normhkva=50.0 !GroupMV=NULL !GroupLV=NULL
new transformer.AGO1P_10 phases=1 windings=3 Xhl=1.86 Xht=1.86 Xlt=1.24 %Rs=[0.55 1.10 1.10]  %noloadloss=0.37 %imag=1.00 Buses=[BUSMVAGO700.3.0 BUSLVAGO10.1.0 BUSLVAGO10.0.2] kvs=[7.22 0.12 0.12] kVAs=[50.0 50.0 50.0] conns=[wye wye wye] Taps=[1.00, 1, 1] normhkva=50.0 !GroupMV=NULL !GroupLV=NULL
new transformer.AGO1P_11 phases=1 windings=3 Xhl=1.86 Xht=1.86 Xlt=1.24 %Rs=[0.55 1.10 1.10]  %noloadloss=0.37 %imag=1.00 Buses=[BUSMVAGO2173.2.0 BUSLVAGO11.1.0 BUSLVAGO11.0.2] kvs=[7.22 0.12 0.12] kVAs=[50.0 50.0 50.0] conns=[wye wye wye] Taps=[1.00, 1, 1] normhkva=50.0 !GroupMV=NULL !GroupLV=NULL
new transformer.AGO1P_12 phases=1 windings=3 Xhl=1.80 Xht=1.80 Xlt=1.20 %Rs=[0.50 1.00 1.00] %noloadloss=0.38 %imag=1.40 Buses=[BUSMVAGO2175.2.0 BUSLVAGO12.1.0 BUSLVAGO12.0.2] kvs=[7.22 0.12 0.12] kVAs=[75.0 75.0 75.0] conns=[wye wye wye] Taps=[1.00, 1, 1] normhkva=75.0 !GroupMV=NULL !GroupLV=NULL
new transformer.AGO1P_13 phases=1 windings=3 Xhl=1.80 Xht=1.80 Xlt=1.20 %Rs=[0.50 1.00 1.00] %noloadloss=0.38 %imag=1.40 Buses=[BUSMVAGO2172.1.0 BUSLVAGO13.1.0 BUSLVAGO13.0.2] kvs=[7.22 0.12 0.12] kVAs=[75.0 75.0 75.0] conns=[wye wye wye] Taps=[1.00, 1, 1] normhkva=75.0 !GroupMV=NULL !GroupLV=NULL
new transformer.AGO1P_14 phases=1 windings=3 Xhl=1.80 Xht=1.80 Xlt=1.20 %Rs=[0.50 1.00 1.00] %noloadloss=0.38 %imag=1.40 Buses=[BUSMVAGO2181.1.0 BUSLVAGO14.1.0 BUSLVAGO14.0.2] kvs=[7.22 0.12 0.12] kVAs=[75.0 75.0 75.0] conns=[wye wye wye] Taps=[1.00, 1, 1] normhkva=75.0 !GroupMV=NULL !GroupLV=NULL
new transformer.AGO1P_15 phases=1 windings=3 Xhl=1.86 Xht=1.86 Xlt=1.24 %Rs=[0.55 1.10 1.10]  %noloadloss=0.37 %imag=1.00 Buses=[BUSMVAGO2171.1.0 BUSLVAGO15.1.0 BUSLVAGO15.0.2] kvs=[7.22 0.12 0.12] kVAs=[50.0 50.0 50.0] conns=[wye wye wye] Taps=[1.00, 1, 1] normhkva=50.0 !GroupMV=NULL !GroupLV=NULL
new transformer.AGO1P_16 phases=1 windings=3 Xhl=1.19 Xht=1.19 Xlt=0.80 %Rs=[0.75 1.50 1.50] %noloadloss=0.56 %imag=1.40 Buses=[BUSMVAGO2165.3.0 BUSLVAGO16.1.0 BUSLVAGO16.0.2] kvs=[7.22 0.12 0.12] kVAs=[15.0 15.0 15.0] conns=[wye wye wye] Taps=[1.00, 1, 1] normhkva=15.0 !GroupMV=NULL !GroupLV=NULL
new transformer.AGO1P_17 phases=1 windings=3 Xhl=1.49 Xht=1.49 Xlt=1.00 %Rs=[0.65 1.30 1.30] %noloadloss=0.47 %imag=1.30 Buses=[BUSMVAGO32.3.0 BUSLVAGO17.1.0 BUSLVAGO17.0.2] kvs=[7.22 0.12 0.12] kVAs=[25.0 25.0 25.0] conns=[wye wye wye] Taps=[1.00, 1, 1] normhkva=25.0 !GroupMV=NULL !GroupLV=NULL
new transformer.AGO1P_18 phases=1 windings=3 Xhl=1.80 Xht=1.80 Xlt=1.20 %Rs=[0.50 1.00 1.00] %noloadloss=0.38 %imag=1.40 Buses=[BUSMVAGO696.3.0 BUSLVAGO18.1.0 BUSLVAGO18.0.2] kvs=[7.22 0.12 0.12] kVAs=[75.0 75.0 75.0] conns=[wye wye wye] Taps=[1.00, 1, 1] normhkva=75.0 !GroupMV=NULL !GroupLV=NULL
new transformer.AGO1P_19 phases=1 windings=3 Xhl=1.86 Xht=1.86 Xlt=1.24 %Rs=[0.55 1.10 1.10]  %noloadloss=0.37 %imag=1.00 Buses=[BUSMVAGO695.3.0 BUSLVAGO19.1.0 BUSLVAGO19.0.2] kvs=[7.22 0.12 0.12] kVAs=[50.0 50.0 50.0] conns=[wye wye wye] Taps=[1.00, 1, 1] normhkva=50.0 !GroupMV=NULL !GroupLV=NULL
new transformer.AGO1P_20 phases=1 windings=3 Xhl=1.19 Xht=1.19 Xlt=0.80 %Rs=[0.75 1.50 1.50] %noloadloss=0.56 %imag=1.40 Buses=[BUSMVAGO11.2.0 BUSLVAGO20.1.0 BUSLVAGO20.0.2] kvs=[7.22 0.12 0.12] kVAs=[15.0 15.0 15.0] conns=[wye wye wye] Taps=[1.00, 1, 1] normhkva=15.0 !GroupMV=NULL !GroupLV=NULL
new transformer.AGO1P_21 phases=1 windings=3 Xhl=1.80 Xht=1.80 Xlt=1.20 %Rs=[0.50 1.00 1.00] %noloadloss=0.38 %imag=1.40 Buses=[BUSMVAGO863.3.0 BUSLVAGO21.1.0 BUSLVAGO21.0.2] kvs=[7.22 0.12 0.12] kVAs=[75.0 75.0 75.0] conns=[wye wye wye] Taps=[1.00, 1, 1] normhkva=75.0 !GroupMV=NULL !GroupLV=NULL
new transformer.AGO1P_22 phases=1 windings=3 Xhl=1.71 Xht=1.71 Xlt=1.14 %Rs=[0.55 1.10 1.10] %noloadloss=0.44 %imag=1.10 Buses=[BUSMVAGO34.1.0 BUSLVAGO22.1.0 BUSLVAGO22.0.2] kvs=[7.22 0.12 0.12] kVAs=[37.5 37.5 37.5] conns=[wye wye wye] Taps=[1.00, 1, 1] normhkva=37.5 !GroupMV=NULL !GroupLV=NULL
new transformer.AGO1P_23 phases=1 windings=3 Xhl=1.80 Xht=1.80 Xlt=1.20 %Rs=[0.50 1.00 1.00] %noloadloss=0.38 %imag=1.40 Buses=[BUSMVAGO2179.3.0 BUSLVAGO23.1.0 BUSLVAGO23.0.2] kvs=[7.22 0.12 0.12] kVAs=[75.0 75.0 75.0] conns=[wye wye wye] Taps=[1.00, 1, 1] normhkva=75.0 !GroupMV=NULL !GroupLV=NULL
new transformer.AGO1P_24 phases=1 windings=3 Xhl=1.80 Xht=1.80 Xlt=1.20 %Rs=[0.50 1.00 1.00] %noloadloss=0.38 %imag=1.40 Buses=[BUSMVAGO2180.3.0 BUSLVAGO24.1.0 BUSLVAGO24.0.2] kvs=[7.22 0.12 0.12] kVAs=[75.0 75.0 75.0] conns=[wye wye wye] Taps=[1.00, 1, 1] normhkva=75.0 !GroupMV=NULL !GroupLV=NULL
new transformer.AGO1P_25 phases=1 windings=3 Xhl=1.80 Xht=1.80 Xlt=1.20 %Rs=[0.50 1.00 1.00] %noloadloss=0.38 %imag=1.40 Buses=[BUSMVAGO2178.3.0 BUSLVAGO25.1.0 BUSLVAGO25.0.2] kvs=[7.22 0.12 0.12] kVAs=[75.0 75.0 75.0] conns=[wye wye wye] Taps=[1.00, 1, 1] normhkva=75.0 !GroupMV=NULL !GroupLV=NULL
new transformer.AGO1P_26 phases=1 windings=3 Xhl=1.80 Xht=1.80 Xlt=1.20 %Rs=[0.50 1.00 1.00] %noloadloss=0.38 %imag=1.40 Buses=[BUSMVAGO2174.2.0 BUSLVAGO26.1.0 BUSLVAGO26.0.2] kvs=[7.22 0.12 0.12] kVAs=[75.0 75.0 75.0] conns=[wye wye wye] Taps=[1.00, 1, 1] normhkva=75.0 !GroupMV=NULL !GroupLV=NULL
new transformer.AGO1P_27 phases=1 windings=3 Xhl=1.49 Xht=1.49 Xlt=1.00 %Rs=[0.65 1.30 1.30] %noloadloss=0.47 %imag=1.30 Buses=[BUSMVAGO14.2.0 BUSLVAGO27.1.0 BUSLVAGO27.0.2] kvs=[7.22 0.12 0.12] kVAs=[25.0 25.0 25.0] conns=[wye wye wye] Taps=[1.00, 1, 1] normhkva=25.0 !GroupMV=NULL !GroupLV=NULL
new transformer.AGO1P_28 phases=1 windings=3 Xhl=1.80 Xht=1.80 Xlt=1.20 %Rs=[0.50 1.00 1.00] %noloadloss=0.38 %imag=1.40 Buses=[BUSMVAGO21.3.0 BUSLVAGO28.1.0 BUSLVAGO28.0.2] kvs=[7.22 0.12 0.12] kVAs=[75.0 75.0 75.0] conns=[wye wye wye] Taps=[1.00, 1, 1] normhkva=75.0 !GroupMV=NULL !GroupLV=NULL
new transformer.AGO1P_29 phases=1 windings=3 Xhl=1.80 Xht=1.80 Xlt=1.20 %Rs=[0.50 1.00 1.00] %noloadloss=0.38 %imag=1.40 Buses=[BUSMVAGO701.3.0 BUSLVAGO29.1.0 BUSLVAGO29.0.2] kvs=[7.22 0.12 0.12] kVAs=[75.0 75.0 75.0] conns=[wye wye wye] Taps=[1.00, 1, 1] normhkva=75.0 !GroupMV=NULL !GroupLV=NULL
new transformer.AGO1P_30 phases=1 windings=3 Xhl=1.71 Xht=1.71 Xlt=1.14 %Rs=[0.55 1.10 1.10] %noloadloss=0.44 %imag=1.10 Buses=[BUSMVAGO871.2.0 BUSLVAGO30.1.0 BUSLVAGO30.0.2] kvs=[7.22 0.12 0.12] kVAs=[37.5 37.5 37.5] conns=[wye wye wye] Taps=[1.00, 1, 1] normhkva=37.5 !GroupMV=NULL !GroupLV=NULL
new transformer.AGO1P_31 phases=1 windings=3 Xhl=1.80 Xht=1.80 Xlt=1.20 %Rs=[0.50 1.00 1.00] %noloadloss=0.38 %imag=1.40 Buses=[BUSMVAGO7.3.0 BUSLVAGO31.1.0 BUSLVAGO31.0.2] kvs=[7.22 0.12 0.12] kVAs=[75.0 75.0 75.0] conns=[wye wye wye] Taps=[1.00, 1, 1] normhkva=75.0 !GroupMV=NULL !GroupLV=NULL
new transformer.AGO1P_32 phases=1 windings=3 Xhl=1.86 Xht=1.86 Xlt=1.24 %Rs=[0.55 1.10 1.10]  %noloadloss=0.37 %imag=1.00 Buses=[BUSMVAGO18.1.0 BUSLVAGO32.1.0 BUSLVAGO32.0.2] kvs=[7.22 0.12 0.12] kVAs=[50.0 50.0 50.0] conns=[wye wye wye] Taps=[1.00, 1, 1] normhkva=50.0 !GroupMV=NULL !GroupLV=NULL
new transformer.AGO1P_33 phases=1 windings=3 Xhl=1.86 Xht=1.86 Xlt=1.24 %Rs=[0.55 1.10 1.10]  %noloadloss=0.37 %imag=1.00 Buses=[BUSMVAGO702.3.0 BUSLVAGO33.1.0 BUSLVAGO33.0.2] kvs=[7.22 0.12 0.12] kVAs=[50.0 50.0 50.0] conns=[wye wye wye] Taps=[1.00, 1, 1] normhkva=50.0 !GroupMV=NULL !GroupLV=NULL
new transformer.AGO1P_34 phases=1 windings=3 Xhl=1.49 Xht=1.49 Xlt=1.00 %Rs=[0.65 1.30 1.30] %noloadloss=0.47 %imag=1.30 Buses=[BUSMVAGO72.3.0 BUSLVAGO34.1.0 BUSLVAGO34.0.2] kvs=[7.22 0.12 0.12] kVAs=[25.0 25.0 25.0] conns=[wye wye wye] Taps=[1.00, 1, 1] normhkva=25.0 !GroupMV=NULL !GroupLV=NULL
new transformer.AGO1P_35 phases=1 windings=3 Xhl=1.71 Xht=1.71 Xlt=1.14 %Rs=[0.55 1.10 1.10] %noloadloss=0.44 %imag=1.10 Buses=[BUSMVAGO899.3.0 BUSLVAGO35.1.0 BUSLVAGO35.0.2] kvs=[7.22 0.12 0.12] kVAs=[37.5 37.5 37.5] conns=[wye wye wye] Taps=[1.00, 1, 1] normhkva=37.5 !GroupMV=NULL !GroupLV=NULL
new transformer.AGO1P_36 phases=1 windings=3 Xhl=1.71 Xht=1.71 Xlt=1.14 %Rs=[0.55 1.10 1.10] %noloadloss=0.44 %imag=1.10 Buses=[BUSMVAGO907.3.0 BUSLVAGO36.1.0 BUSLVAGO36.0.2] kvs=[7.22 0.12 0.12] kVAs=[37.5 37.5 37.5] conns=[wye wye wye] Taps=[1.00, 1, 1] normhkva=37.5 !GroupMV=NULL !GroupLV=NULL
new transformer.AGO1P_37 phases=1 windings=3 Xhl=1.80 Xht=1.80 Xlt=1.20 %Rs=[0.50 1.00 1.00] %noloadloss=0.38 %imag=1.40 Buses=[BUSMVAGO2183.3.0 BUSLVAGO37.1.0 BUSLVAGO37.0.2] kvs=[7.22 0.12 0.12] kVAs=[75.0 75.0 75.0] conns=[wye wye wye] Taps=[1.00, 1, 1] normhkva=75.0 !GroupMV=NULL !GroupLV=NULL
new transformer.AGO1P_38 phases=1 windings=3 Xhl=1.19 Xht=1.19 Xlt=0.80 %Rs=[0.75 1.50 1.50] %noloadloss=0.56 %imag=1.40 Buses=[BUSMVAGO94.2.0 BUSLVAGO38.1.0 BUSLVAGO38.0.2] kvs=[7.22 0.12 0.12] kVAs=[15.0 15.0 15.0] conns=[wye wye wye] Taps=[1.00, 1, 1] normhkva=15.0 !GroupMV=NULL !GroupLV=NULL
new transformer.AGO1P_39 phases=1 windings=3 Xhl=1.86 Xht=1.86 Xlt=1.24 %Rs=[0.55 1.10 1.10]  %noloadloss=0.37 %imag=1.00 Buses=[BUSMVAGO932.2.0 BUSLVAGO39.1.0 BUSLVAGO39.0.2] kvs=[7.22 0.12 0.12] kVAs=[50.0 50.0 50.0] conns=[wye wye wye] Taps=[1.00, 1, 1] normhkva=50.0 !GroupMV=NULL !GroupLV=NULL
new transformer.AGO1P_40 phases=1 windings=3 Xhl=1.86 Xht=1.86 Xlt=1.24 %Rs=[0.55 1.10 1.10]  %noloadloss=0.37 %imag=1.00 Buses=[BUSMVAGO890.3.0 BUSLVAGO40.1.0 BUSLVAGO40.0.2] kvs=[7.22 0.12 0.12] kVAs=[50.0 50.0 50.0] conns=[wye wye wye] Taps=[1.00, 1, 1] normhkva=50.0 !GroupMV=NULL !GroupLV=NULL
new transformer.AGO1P_41 phases=1 windings=3 Xhl=1.80 Xht=1.80 Xlt=1.20 %Rs=[0.50 1.00 1.00] %noloadloss=0.38 %imag=1.40 Buses=[BUSMVAGO86.1.0 BUSLVAGO41.1.0 BUSLVAGO41.0.2] kvs=[7.22 0.12 0.12] kVAs=[75.0 75.0 75.0] conns=[wye wye wye] Taps=[1.00, 1, 1] normhkva=75.0 !GroupMV=NULL !GroupLV=NULL
new transformer.AGO1P_42 phases=1 windings=3 Xhl=1.80 Xht=1.80 Xlt=1.20 %Rs=[0.50 1.00 1.00] %noloadloss=0.38 %imag=1.40 Buses=[BUSMVAGO2192.1.0 BUSLVAGO42.1.0 BUSLVAGO42.0.2] kvs=[7.22 0.12 0.12] kVAs=[75.0 75.0 75.0] conns=[wye wye wye] Taps=[1.00, 1, 1] normhkva=75.0 !GroupMV=NULL !GroupLV=NULL
new transformer.AGO1P_43 phases=1 windings=3 Xhl=1.80 Xht=1.80 Xlt=1.20 %Rs=[0.50 1.00 1.00] %noloadloss=0.38 %imag=1.40 Buses=[BUSMVAGO2191.1.0 BUSLVAGO43.1.0 BUSLVAGO43.0.2] kvs=[7.22 0.12 0.12] kVAs=[75.0 75.0 75.0] conns=[wye wye wye] Taps=[1.00, 1, 1] normhkva=75.0 !GroupMV=NULL !GroupLV=NULL
new transformer.AGO1P_44 phases=1 windings=3 Xhl=1.80 Xht=1.80 Xlt=1.20 %Rs=[0.50 1.00 1.00] %noloadloss=0.38 %imag=1.40 Buses=[BUSMVAGO715.3.0 BUSLVAGO44.1.0 BUSLVAGO44.0.2] kvs=[7.22 0.12 0.12] kVAs=[75.0 75.0 75.0] conns=[wye wye wye] Taps=[1.00, 1, 1] normhkva=75.0 !GroupMV=NULL !GroupLV=NULL
new transformer.AGO1P_45 phases=1 windings=3 Xhl=1.71 Xht=1.71 Xlt=1.14 %Rs=[0.55 1.10 1.10] %noloadloss=0.44 %imag=1.10 Buses=[BUSMVAGO69.3.0 BUSLVAGO45.1.0 BUSLVAGO45.0.2] kvs=[7.22 0.12 0.12] kVAs=[37.5 37.5 37.5] conns=[wye wye wye] Taps=[1.00, 1, 1] normhkva=37.5 !GroupMV=NULL !GroupLV=NULL
new transformer.AGO1P_46 phases=1 windings=3 Xhl=1.80 Xht=1.80 Xlt=1.20 %Rs=[0.50 1.00 1.00] %noloadloss=0.38 %imag=1.40 Buses=[BUSMVAGO712.3.0 BUSLVAGO46.1.0 BUSLVAGO46.0.2] kvs=[7.22 0.12 0.12] kVAs=[75.0 75.0 75.0] conns=[wye wye wye] Taps=[1.00, 1, 1] normhkva=75.0 !GroupMV=NULL !GroupLV=NULL
new transformer.AGO1P_47 phases=1 windings=3 Xhl=1.71 Xht=1.71 Xlt=1.14 %Rs=[0.55 1.10 1.10] %noloadloss=0.44 %imag=1.10 Buses=[BUSMVAGO881.3.0 BUSLVAGO47.1.0 BUSLVAGO47.0.2] kvs=[7.22 0.12 0.12] kVAs=[37.5 37.5 37.5] conns=[wye wye wye] Taps=[1.00, 1, 1] normhkva=37.5 !GroupMV=NULL !GroupLV=NULL
new transformer.AGO1P_48 phases=1 windings=3 Xhl=1.71 Xht=1.71 Xlt=1.14 %Rs=[0.55 1.10 1.10] %noloadloss=0.44 %imag=1.10 Buses=[BUSMVAGO883.3.0 BUSLVAGO48.1.0 BUSLVAGO48.0.2] kvs=[7.22 0.12 0.12] kVAs=[37.5 37.5 37.5] conns=[wye wye wye] Taps=[1.00, 1, 1] normhkva=37.5 !GroupMV=NULL !GroupLV=NULL
new transformer.AGO1P_49 phases=1 windings=3 Xhl=1.80 Xht=1.80 Xlt=1.20 %Rs=[0.50 1.00 1.00] %noloadloss=0.38 %imag=1.40 Buses=[BUSMVAGO947.1.0 BUSLVAGO49.1.0 BUSLVAGO49.0.2] kvs=[7.22 0.12 0.12] kVAs=[75.0 75.0 75.0] conns=[wye wye wye] Taps=[1.00, 1, 1] normhkva=75.0 !GroupMV=NULL !GroupLV=NULL
new transformer.AGO1P_50 phases=1 windings=3 Xhl=1.49 Xht=1.49 Xlt=1.00 %Rs=[0.65 1.30 1.30] %noloadloss=0.47 %imag=1.30 Buses=[BUSMVAGO82.2.0 BUSLVAGO50.1.0 BUSLVAGO50.0.2] kvs=[7.22 0.12 0.12] kVAs=[25.0 25.0 25.0] conns=[wye wye wye] Taps=[1.00, 1, 1] normhkva=25.0 !GroupMV=NULL !GroupLV=NULL
new transformer.AGO1P_51 phases=1 windings=3 Xhl=1.49 Xht=1.49 Xlt=1.00 %Rs=[0.65 1.30 1.30] %noloadloss=0.47 %imag=1.30 Buses=[BUSMVAGO927.1.0 BUSLVAGO51.1.0 BUSLVAGO51.0.2] kvs=[7.22 0.12 0.12] kVAs=[25.0 25.0 25.0] conns=[wye wye wye] Taps=[1.00, 1, 1] normhkva=25.0 !GroupMV=NULL !GroupLV=NULL
new transformer.AGO1P_52 phases=1 windings=3 Xhl=1.86 Xht=1.86 Xlt=1.24 %Rs=[0.55 1.10 1.10]  %noloadloss=0.37 %imag=1.00 Buses=[BUSMVAGO872.3.0 BUSLVAGO52.1.0 BUSLVAGO52.0.2] kvs=[7.22 0.12 0.12] kVAs=[50.0 50.0 50.0] conns=[wye wye wye] Taps=[1.00, 1, 1] normhkva=50.0 !GroupMV=NULL !GroupLV=NULL
new transformer.AGO1P_53 phases=1 windings=3 Xhl=1.80 Xht=1.80 Xlt=1.20 %Rs=[0.50 1.00 1.00] %noloadloss=0.38 %imag=1.40 Buses=[BUSMVAGO900.3.0 BUSLVAGO53.1.0 BUSLVAGO53.0.2] kvs=[7.22 0.12 0.12] kVAs=[75.0 75.0 75.0] conns=[wye wye wye] Taps=[1.00, 1, 1] normhkva=75.0 !GroupMV=NULL !GroupLV=NULL
new transformer.AGO1P_54 phases=1 windings=3 Xhl=1.49 Xht=1.49 Xlt=1.00 %Rs=[0.65 1.30 1.30] %noloadloss=0.47 %imag=1.30 Buses=[BUSMVAGO905.3.0 BUSLVAGO54.1.0 BUSLVAGO54.0.2] kvs=[7.22 0.12 0.12] kVAs=[25.0 25.0 25.0] conns=[wye wye wye] Taps=[1.00, 1, 1] normhkva=25.0 !GroupMV=NULL !GroupLV=NULL
new transformer.AGO1P_55 phases=1 windings=3 Xhl=1.80 Xht=1.80 Xlt=1.20 %Rs=[0.50 1.00 1.00] %noloadloss=0.38 %imag=1.40 Buses=[BUSMVAGO2190.1.0 BUSLVAGO55.1.0 BUSLVAGO55.0.2] kvs=[7.22 0.12 0.12] kVAs=[75.0 75.0 75.0] conns=[wye wye wye] Taps=[1.00, 1, 1] normhkva=75.0 !GroupMV=NULL !GroupLV=NULL
new transformer.AGO1P_56 phases=1 windings=3 Xhl=1.86 Xht=1.86 Xlt=1.24 %Rs=[0.55 1.10 1.10]  %noloadloss=0.37 %imag=1.00 Buses=[BUSMVAGO936.3.0 BUSLVAGO56.1.0 BUSLVAGO56.0.2] kvs=[7.22 0.12 0.12] kVAs=[50.0 50.0 50.0] conns=[wye wye wye] Taps=[1.00, 1, 1] normhkva=50.0 !GroupMV=NULL !GroupLV=NULL
new transformer.AGO1P_57 phases=1 windings=3 Xhl=1.80 Xht=1.80 Xlt=1.20 %Rs=[0.50 1.00 1.00] %noloadloss=0.38 %imag=1.40 Buses=[BUSMVAGO713.3.0 BUSLVAGO57.1.0 BUSLVAGO57.0.2] kvs=[7.22 0.12 0.12] kVAs=[75.0 75.0 75.0] conns=[wye wye wye] Taps=[1.00, 1, 1] normhkva=75.0 !GroupMV=NULL !GroupLV=NULL
new transformer.AGO1P_58 phases=1 windings=3 Xhl=1.71 Xht=1.71 Xlt=1.14 %Rs=[0.55 1.10 1.10] %noloadloss=0.44 %imag=1.10 Buses=[BUSMVAGO880.3.0 BUSLVAGO58.1.0 BUSLVAGO58.0.2] kvs=[7.22 0.12 0.12] kVAs=[37.5 37.5 37.5] conns=[wye wye wye] Taps=[1.00, 1, 1] normhkva=37.5 !GroupMV=NULL !GroupLV=NULL
new transformer.AGO1P_59 phases=1 windings=3 Xhl=1.80 Xht=1.80 Xlt=1.20 %Rs=[0.50 1.00 1.00] %noloadloss=0.38 %imag=1.40 Buses=[BUSMVAGO916.1.0 BUSLVAGO59.1.0 BUSLVAGO59.0.2] kvs=[7.22 0.12 0.12] kVAs=[75.0 75.0 75.0] conns=[wye wye wye] Taps=[1.00, 1, 1] normhkva=75.0 !GroupMV=NULL !GroupLV=NULL
new transformer.AGO1P_60 phases=1 windings=3 Xhl=1.86 Xht=1.86 Xlt=1.24 %Rs=[0.55 1.10 1.10]  %noloadloss=0.37 %imag=1.00 Buses=[BUSMVAGO2189.1.0 BUSLVAGO60.1.0 BUSLVAGO60.0.2] kvs=[7.22 0.12 0.12] kVAs=[50.0 50.0 50.0] conns=[wye wye wye] Taps=[1.00, 1, 1] normhkva=50.0 !GroupMV=NULL !GroupLV=NULL
new transformer.AGO1P_61 phases=1 windings=3 Xhl=1.71 Xht=1.71 Xlt=1.14 %Rs=[0.55 1.10 1.10] %noloadloss=0.44 %imag=1.10 Buses=[BUSMVAGO61.1.0 BUSLVAGO61.1.0 BUSLVAGO61.0.2] kvs=[7.22 0.12 0.12] kVAs=[37.5 37.5 37.5] conns=[wye wye wye] Taps=[1.00, 1, 1] normhkva=37.5 !GroupMV=NULL !GroupLV=NULL
new transformer.AGO1P_62 phases=1 windings=3 Xhl=1.71 Xht=1.71 Xlt=1.14 %Rs=[0.55 1.10 1.10] %noloadloss=0.44 %imag=1.10 Buses=[BUSMVAGO103.2.0 BUSLVAGO62.1.0 BUSLVAGO62.0.2] kvs=[7.22 0.12 0.12] kVAs=[37.5 37.5 37.5] conns=[wye wye wye] Taps=[1.00, 1, 1] normhkva=37.5 !GroupMV=NULL !GroupLV=NULL
new transformer.AGO1P_63 phases=1 windings=3 Xhl=1.80 Xht=1.80 Xlt=1.20 %Rs=[0.50 1.00 1.00] %noloadloss=0.38 %imag=1.40 Buses=[BUSMVAGO64.1.0 BUSLVAGO63.1.0 BUSLVAGO63.0.2] kvs=[7.22 0.12 0.12] kVAs=[75.0 75.0 75.0] conns=[wye wye wye] Taps=[1.00, 1, 1] normhkva=75.0 !GroupMV=NULL !GroupLV=NULL
new transformer.AGO1P_64 phases=1 windings=3 Xhl=1.86 Xht=1.86 Xlt=1.24 %Rs=[0.55 1.10 1.10]  %noloadloss=0.37 %imag=1.00 Buses=[BUSMVAGO935.2.0 BUSLVAGO64.1.0 BUSLVAGO64.0.2] kvs=[7.22 0.12 0.12] kVAs=[50.0 50.0 50.0] conns=[wye wye wye] Taps=[1.00, 1, 1] normhkva=50.0 !GroupMV=NULL !GroupLV=NULL
new transformer.AGO1P_65 phases=1 windings=3 Xhl=1.71 Xht=1.71 Xlt=1.14 %Rs=[0.55 1.10 1.10] %noloadloss=0.44 %imag=1.10 Buses=[BUSMVAGO929.1.0 BUSLVAGO65.1.0 BUSLVAGO65.0.2] kvs=[7.22 0.12 0.12] kVAs=[37.5 37.5 37.5] conns=[wye wye wye] Taps=[1.00, 1, 1] normhkva=37.5 !GroupMV=NULL !GroupLV=NULL
new transformer.AGO1P_66 phases=1 windings=3 Xhl=1.71 Xht=1.71 Xlt=1.14 %Rs=[0.55 1.10 1.10] %noloadloss=0.44 %imag=1.10 Buses=[BUSMVAGO901.3.0 BUSLVAGO66.1.0 BUSLVAGO66.0.2] kvs=[7.22 0.12 0.12] kVAs=[37.5 37.5 37.5] conns=[wye wye wye] Taps=[1.00, 1, 1] normhkva=37.5 !GroupMV=NULL !GroupLV=NULL
new transformer.AGO1P_67 phases=1 windings=3 Xhl=1.49 Xht=1.49 Xlt=1.00 %Rs=[0.65 1.30 1.30] %noloadloss=0.47 %imag=1.30 Buses=[BUSMVAGO908.1.0 BUSLVAGO67.1.0 BUSLVAGO67.0.2] kvs=[7.22 0.12 0.12] kVAs=[25.0 25.0 25.0] conns=[wye wye wye] Taps=[1.00, 1, 1] normhkva=25.0 !GroupMV=NULL !GroupLV=NULL
new transformer.AGO1P_68 phases=1 windings=3 Xhl=1.86 Xht=1.86 Xlt=1.24 %Rs=[0.55 1.10 1.10]  %noloadloss=0.37 %imag=1.00 Buses=[BUSMVAGO89.1.0 BUSLVAGO68.1.0 BUSLVAGO68.0.2] kvs=[7.22 0.12 0.12] kVAs=[50.0 50.0 50.0] conns=[wye wye wye] Taps=[1.00, 1, 1] normhkva=50.0 !GroupMV=NULL !GroupLV=NULL
new transformer.AGO1P_69 phases=1 windings=3 Xhl=1.86 Xht=1.86 Xlt=1.24 %Rs=[0.55 1.10 1.10]  %noloadloss=0.37 %imag=1.00 Buses=[BUSMVAGO897.3.0 BUSLVAGO69.1.0 BUSLVAGO69.0.2] kvs=[7.22 0.12 0.12] kVAs=[50.0 50.0 50.0] conns=[wye wye wye] Taps=[1.00, 1, 1] normhkva=50.0 !GroupMV=NULL !GroupLV=NULL
new transformer.AGO1P_70 phases=1 windings=3 Xhl=1.71 Xht=1.71 Xlt=1.14 %Rs=[0.55 1.10 1.10] %noloadloss=0.44 %imag=1.10 Buses=[BUSMVAGO896.3.0 BUSLVAGO70.1.0 BUSLVAGO70.0.2] kvs=[7.22 0.12 0.12] kVAs=[37.5 37.5 37.5] conns=[wye wye wye] Taps=[1.00, 1, 1] normhkva=37.5 !GroupMV=NULL !GroupLV=NULL
new transformer.AGO1P_71 phases=1 windings=3 Xhl=1.71 Xht=1.71 Xlt=1.14 %Rs=[0.55 1.10 1.10] %noloadloss=0.44 %imag=1.10 Buses=[BUSMVAGO931.1.0 BUSLVAGO71.1.0 BUSLVAGO71.0.2] kvs=[7.22 0.12 0.12] kVAs=[37.5 37.5 37.5] conns=[wye wye wye] Taps=[1.00, 1, 1] normhkva=37.5 !GroupMV=NULL !GroupLV=NULL
new transformer.AGO1P_72 phases=1 windings=3 Xhl=1.86 Xht=1.86 Xlt=1.24 %Rs=[0.55 1.10 1.10]  %noloadloss=0.37 %imag=1.00 Buses=[BUSMVAGO2197.1.0 BUSLVAGO72.1.0 BUSLVAGO72.0.2] kvs=[7.22 0.12 0.12] kVAs=[50.0 50.0 50.0] conns=[wye wye wye] Taps=[1.00, 1, 1] normhkva=50.0 !GroupMV=NULL !GroupLV=NULL
new transformer.AGO1P_73 phases=1 windings=3 Xhl=1.86 Xht=1.86 Xlt=1.24 %Rs=[0.55 1.10 1.10]  %noloadloss=0.37 %imag=1.00 Buses=[BUSMVAGO920.1.0 BUSLVAGO73.1.0 BUSLVAGO73.0.2] kvs=[7.22 0.12 0.12] kVAs=[50.0 50.0 50.0] conns=[wye wye wye] Taps=[1.00, 1, 1] normhkva=50.0 !GroupMV=NULL !GroupLV=NULL
new transformer.AGO1P_74 phases=1 windings=3 Xhl=1.80 Xht=1.80 Xlt=1.20 %Rs=[0.50 1.00 1.00] %noloadloss=0.38 %imag=1.40 Buses=[BUSMVAGO915.1.0 BUSLVAGO74.1.0 BUSLVAGO74.0.2] kvs=[7.22 0.12 0.12] kVAs=[75.0 75.0 75.0] conns=[wye wye wye] Taps=[1.00, 1, 1] normhkva=75.0 !GroupMV=NULL !GroupLV=NULL
new transformer.AGO1P_75 phases=1 windings=3 Xhl=1.71 Xht=1.71 Xlt=1.14 %Rs=[0.55 1.10 1.10] %noloadloss=0.44 %imag=1.10 Buses=[BUSMVAGO925.2.0 BUSLVAGO75.1.0 BUSLVAGO75.0.2] kvs=[7.22 0.12 0.12] kVAs=[37.5 37.5 37.5] conns=[wye wye wye] Taps=[1.00, 1, 1] normhkva=37.5 !GroupMV=NULL !GroupLV=NULL
new transformer.AGO1P_76 phases=1 windings=3 Xhl=1.86 Xht=1.86 Xlt=1.24 %Rs=[0.55 1.10 1.10]  %noloadloss=0.37 %imag=1.00 Buses=[BUSMVAGO946.3.0 BUSLVAGO76.1.0 BUSLVAGO76.0.2] kvs=[7.22 0.12 0.12] kVAs=[50.0 50.0 50.0] conns=[wye wye wye] Taps=[1.00, 1, 1] normhkva=50.0 !GroupMV=NULL !GroupLV=NULL
new transformer.AGO1P_77 phases=1 windings=3 Xhl=1.71 Xht=1.71 Xlt=1.14 %Rs=[0.55 1.10 1.10] %noloadloss=0.44 %imag=1.10 Buses=[BUSMVAGO68.1.0 BUSLVAGO77.1.0 BUSLVAGO77.0.2] kvs=[7.22 0.12 0.12] kVAs=[37.5 37.5 37.5] conns=[wye wye wye] Taps=[1.00, 1, 1] normhkva=37.5 !GroupMV=NULL !GroupLV=NULL
new transformer.AGO1P_78 phases=1 windings=3 Xhl=1.86 Xht=1.86 Xlt=1.24 %Rs=[0.55 1.10 1.10]  %noloadloss=0.37 %imag=1.00 Buses=[BUSMVAGO922.1.0 BUSLVAGO78.1.0 BUSLVAGO78.0.2] kvs=[7.22 0.12 0.12] kVAs=[50.0 50.0 50.0] conns=[wye wye wye] Taps=[1.00, 1, 1] normhkva=50.0 !GroupMV=NULL !GroupLV=NULL
new transformer.AGO1P_79 phases=1 windings=3 Xhl=1.71 Xht=1.71 Xlt=1.14 %Rs=[0.55 1.10 1.10] %noloadloss=0.44 %imag=1.10 Buses=[BUSMVAGO717.3.0 BUSLVAGO79.1.0 BUSLVAGO79.0.2] kvs=[7.22 0.12 0.12] kVAs=[37.5 37.5 37.5] conns=[wye wye wye] Taps=[1.00, 1, 1] normhkva=37.5 !GroupMV=NULL !GroupLV=NULL
new transformer.AGO1P_80 phases=1 windings=3 Xhl=1.86 Xht=1.86 Xlt=1.24 %Rs=[0.55 1.10 1.10]  %noloadloss=0.37 %imag=1.00 Buses=[BUSMVAGO879.3.0 BUSLVAGO80.1.0 BUSLVAGO80.0.2] kvs=[7.22 0.12 0.12] kVAs=[50.0 50.0 50.0] conns=[wye wye wye] Taps=[1.00, 1, 1] normhkva=50.0 !GroupMV=NULL !GroupLV=NULL
new transformer.AGO1P_81 phases=1 windings=3 Xhl=1.71 Xht=1.71 Xlt=1.14 %Rs=[0.55 1.10 1.10] %noloadloss=0.44 %imag=1.10 Buses=[BUSMVAGO903.3.0 BUSLVAGO81.1.0 BUSLVAGO81.0.2] kvs=[7.22 0.12 0.12] kVAs=[37.5 37.5 37.5] conns=[wye wye wye] Taps=[1.00, 1, 1] normhkva=37.5 !GroupMV=NULL !GroupLV=NULL
new transformer.AGO1P_82 phases=1 windings=3 Xhl=1.49 Xht=1.49 Xlt=1.00 %Rs=[0.65 1.30 1.30] %noloadloss=0.47 %imag=1.30 Buses=[BUSMVAGO894.3.0 BUSLVAGO82.1.0 BUSLVAGO82.0.2] kvs=[7.22 0.12 0.12] kVAs=[25.0 25.0 25.0] conns=[wye wye wye] Taps=[1.00, 1, 1] normhkva=25.0 !GroupMV=NULL !GroupLV=NULL
new transformer.AGO1P_83 phases=1 windings=3 Xhl=1.71 Xht=1.71 Xlt=1.14 %Rs=[0.55 1.10 1.10] %noloadloss=0.44 %imag=1.10 Buses=[BUSMVAGO910.1.0 BUSLVAGO83.1.0 BUSLVAGO83.0.2] kvs=[7.22 0.12 0.12] kVAs=[37.5 37.5 37.5] conns=[wye wye wye] Taps=[1.00, 1, 1] normhkva=37.5 !GroupMV=NULL !GroupLV=NULL
new transformer.AGO1P_84 phases=1 windings=3 Xhl=1.71 Xht=1.71 Xlt=1.14 %Rs=[0.55 1.10 1.10] %noloadloss=0.44 %imag=1.10 Buses=[BUSMVAGO941.3.0 BUSLVAGO84.1.0 BUSLVAGO84.0.2] kvs=[7.22 0.12 0.12] kVAs=[37.5 37.5 37.5] conns=[wye wye wye] Taps=[1.00, 1, 1] normhkva=37.5 !GroupMV=NULL !GroupLV=NULL
new transformer.AGO1P_85 phases=1 windings=3 Xhl=1.80 Xht=1.80 Xlt=1.20 %Rs=[0.50 1.00 1.00] %noloadloss=0.38 %imag=1.40 Buses=[BUSMVAGO2196.2.0 BUSLVAGO85.1.0 BUSLVAGO85.0.2] kvs=[7.22 0.12 0.12] kVAs=[75.0 75.0 75.0] conns=[wye wye wye] Taps=[1.00, 1, 1] normhkva=75.0 !GroupMV=NULL !GroupLV=NULL
new transformer.AGO1P_86 phases=1 windings=3 Xhl=1.71 Xht=1.71 Xlt=1.14 %Rs=[0.55 1.10 1.10] %noloadloss=0.44 %imag=1.10 Buses=[BUSMVAGO918.1.0 BUSLVAGO86.1.0 BUSLVAGO86.0.2] kvs=[7.22 0.12 0.12] kVAs=[37.5 37.5 37.5] conns=[wye wye wye] Taps=[1.00, 1, 1] normhkva=37.5 !GroupMV=NULL !GroupLV=NULL
new transformer.AGO1P_87 phases=1 windings=3 Xhl=1.80 Xht=1.80 Xlt=1.20 %Rs=[0.50 1.00 1.00] %noloadloss=0.38 %imag=1.40 Buses=[BUSMVAGO2185.1.0 BUSLVAGO87.1.0 BUSLVAGO87.0.2] kvs=[7.22 0.12 0.12] kVAs=[75.0 75.0 75.0] conns=[wye wye wye] Taps=[1.00, 1, 1] normhkva=75.0 !GroupMV=NULL !GroupLV=NULL
new transformer.AGO1P_88 phases=1 windings=3 Xhl=1.86 Xht=1.86 Xlt=1.24 %Rs=[0.55 1.10 1.10]  %noloadloss=0.37 %imag=1.00 Buses=[BUSMVAGO904.3.0 BUSLVAGO88.1.0 BUSLVAGO88.0.2] kvs=[7.22 0.12 0.12] kVAs=[50.0 50.0 50.0] conns=[wye wye wye] Taps=[1.00, 1, 1] normhkva=50.0 !GroupMV=NULL !GroupLV=NULL
new transformer.AGO1P_89 phases=1 windings=3 Xhl=1.86 Xht=1.86 Xlt=1.24 %Rs=[0.55 1.10 1.10]  %noloadloss=0.37 %imag=1.00 Buses=[BUSMVAGO906.3.0 BUSLVAGO89.1.0 BUSLVAGO89.0.2] kvs=[7.22 0.12 0.12] kVAs=[50.0 50.0 50.0] conns=[wye wye wye] Taps=[1.00, 1, 1] normhkva=50.0 !GroupMV=NULL !GroupLV=NULL
new transformer.AGO1P_90 phases=1 windings=3 Xhl=1.49 Xht=1.49 Xlt=1.00 %Rs=[0.65 1.30 1.30] %noloadloss=0.47 %imag=1.30 Buses=[BUSMVAGO891.3.0 BUSLVAGO90.1.0 BUSLVAGO90.0.2] kvs=[7.22 0.12 0.12] kVAs=[25.0 25.0 25.0] conns=[wye wye wye] Taps=[1.00, 1, 1] normhkva=25.0 !GroupMV=NULL !GroupLV=NULL
new transformer.AGO1P_91 phases=1 windings=3 Xhl=1.80 Xht=1.80 Xlt=1.20 %Rs=[0.50 1.00 1.00] %noloadloss=0.38 %imag=1.40 Buses=[BUSMVAGO2184.3.0 BUSLVAGO91.1.0 BUSLVAGO91.0.2] kvs=[7.22 0.12 0.12] kVAs=[75.0 75.0 75.0] conns=[wye wye wye] Taps=[1.00, 1, 1] normhkva=75.0 !GroupMV=NULL !GroupLV=NULL
new transformer.AGO1P_92 phases=1 windings=3 Xhl=1.86 Xht=1.86 Xlt=1.24 %Rs=[0.55 1.10 1.10]  %noloadloss=0.37 %imag=1.00 Buses=[BUSMVAGO76.1.0 BUSLVAGO92.1.0 BUSLVAGO92.0.2] kvs=[7.22 0.12 0.12] kVAs=[50.0 50.0 50.0] conns=[wye wye wye] Taps=[1.00, 1, 1] normhkva=50.0 !GroupMV=NULL !GroupLV=NULL
new transformer.AGO1P_93 phases=1 windings=3 Xhl=2.14 Xht=2.14 Xlt=1.43 %Rs=[0.45 0.90 0.90] %noloadloss=0.36 %imag=1.30 Buses=[BUSMVAGO716.3.0 BUSLVAGO93.1.0 BUSLVAGO93.0.2] kvs=[7.22 0.12 0.12] kVAs=[100.0 100.0 100.0] conns=[wye wye wye] Taps=[1.00, 1, 1] normhkva=100.0 !GroupMV=NULL !GroupLV=NULL
new transformer.AGO1P_94 phases=1 windings=3 Xhl=1.71 Xht=1.71 Xlt=1.14 %Rs=[0.55 1.10 1.10] %noloadloss=0.44 %imag=1.10 Buses=[BUSMVAGO882.3.0 BUSLVAGO94.1.0 BUSLVAGO94.0.2] kvs=[7.22 0.12 0.12] kVAs=[37.5 37.5 37.5] conns=[wye wye wye] Taps=[1.00, 1, 1] normhkva=37.5 !GroupMV=NULL !GroupLV=NULL
new transformer.AGO1P_95 phases=1 windings=3 Xhl=1.80 Xht=1.80 Xlt=1.20 %Rs=[0.50 1.00 1.00] %noloadloss=0.38 %imag=1.40 Buses=[BUSMVAGO930.3.0 BUSLVAGO95.1.0 BUSLVAGO95.0.2] kvs=[7.22 0.12 0.12] kVAs=[75.0 75.0 75.0] conns=[wye wye wye] Taps=[1.00, 1, 1] normhkva=75.0 !GroupMV=NULL !GroupLV=NULL
new transformer.AGO1P_96 phases=1 windings=3 Xhl=1.71 Xht=1.71 Xlt=1.14 %Rs=[0.55 1.10 1.10] %noloadloss=0.44 %imag=1.10 Buses=[BUSMVAGO703.3.0 BUSLVAGO96.1.0 BUSLVAGO96.0.2] kvs=[7.22 0.12 0.12] kVAs=[37.5 37.5 37.5] conns=[wye wye wye] Taps=[1.00, 1, 1] normhkva=37.5 !GroupMV=NULL !GroupLV=NULL
new transformer.AGO1P_97 phases=1 windings=3 Xhl=1.80 Xht=1.80 Xlt=1.20 %Rs=[0.50 1.00 1.00] %noloadloss=0.38 %imag=1.40 Buses=[BUSMVAGO2193.2.0 BUSLVAGO97.1.0 BUSLVAGO97.0.2] kvs=[7.22 0.12 0.12] kVAs=[75.0 75.0 75.0] conns=[wye wye wye] Taps=[1.00, 1, 1] normhkva=75.0 !GroupMV=NULL !GroupLV=NULL
new transformer.AGO1P_98 phases=1 windings=3 Xhl=1.80 Xht=1.80 Xlt=1.20 %Rs=[0.50 1.00 1.00] %noloadloss=0.38 %imag=1.40 Buses=[BUSMVAGO2195.2.0 BUSLVAGO98.1.0 BUSLVAGO98.0.2] kvs=[7.22 0.12 0.12] kVAs=[75.0 75.0 75.0] conns=[wye wye wye] Taps=[1.00, 1, 1] normhkva=75.0 !GroupMV=NULL !GroupLV=NULL
new transformer.AGO1P_99 phases=1 windings=3 Xhl=1.71 Xht=1.71 Xlt=1.14 %Rs=[0.55 1.10 1.10] %noloadloss=0.44 %imag=1.10 Buses=[BUSMVAGO705.3.0 BUSLVAGO99.1.0 BUSLVAGO99.0.2] kvs=[7.22 0.12 0.12] kVAs=[37.5 37.5 37.5] conns=[wye wye wye] Taps=[1.00, 1, 1] normhkva=37.5 !GroupMV=NULL !GroupLV=NULL
new transformer.AGO1P_100 phases=1 windings=3 Xhl=1.71 Xht=1.71 Xlt=1.14 %Rs=[0.55 1.10 1.10] %noloadloss=0.44 %imag=1.10 Buses=[BUSMVAGO704.3.0 BUSLVAGO100.1.0 BUSLVAGO100.0.2] kvs=[7.22 0.12 0.12] kVAs=[37.5 37.5 37.5] conns=[wye wye wye] Taps=[1.00, 1, 1] normhkva=37.5 !GroupMV=NULL !GroupLV=NULL
new transformer.AGO1P_101 phases=1 windings=3 Xhl=2.14 Xht=2.14 Xlt=1.43 %Rs=[0.45 0.90 0.90] %noloadloss=0.36 %imag=1.30 Buses=[BUSMVAGO923.3.0 BUSLVAGO101.1.0 BUSLVAGO101.0.2] kvs=[7.22 0.12 0.12] kVAs=[100.0 100.0 100.0] conns=[wye wye wye] Taps=[1.00, 1, 1] normhkva=100.0 !GroupMV=NULL !GroupLV=NULL
new transformer.AGO1P_102 phases=1 windings=3 Xhl=1.49 Xht=1.49 Xlt=1.00 %Rs=[0.65 1.30 1.30] %noloadloss=0.47 %imag=1.30 Buses=[BUSMVAGO902.3.0 BUSLVAGO102.1.0 BUSLVAGO102.0.2] kvs=[7.22 0.12 0.12] kVAs=[25.0 25.0 25.0] conns=[wye wye wye] Taps=[1.00, 1, 1] normhkva=25.0 !GroupMV=NULL !GroupLV=NULL
new transformer.AGO1P_103 phases=1 windings=3 Xhl=1.80 Xht=1.80 Xlt=1.20 %Rs=[0.50 1.00 1.00] %noloadloss=0.38 %imag=1.40 Buses=[BUSMVAGO719.3.0 BUSLVAGO103.1.0 BUSLVAGO103.0.2] kvs=[7.22 0.12 0.12] kVAs=[75.0 75.0 75.0] conns=[wye wye wye] Taps=[1.00, 1, 1] normhkva=75.0 !GroupMV=NULL !GroupLV=NULL
new transformer.AGO1P_104 phases=1 windings=3 Xhl=1.71 Xht=1.71 Xlt=1.14 %Rs=[0.55 1.10 1.10] %noloadloss=0.44 %imag=1.10 Buses=[BUSMVAGO720.3.0 BUSLVAGO104.1.0 BUSLVAGO104.0.2] kvs=[7.22 0.12 0.12] kVAs=[37.5 37.5 37.5] conns=[wye wye wye] Taps=[1.00, 1, 1] normhkva=37.5 !GroupMV=NULL !GroupLV=NULL
new transformer.AGO1P_105 phases=1 windings=3 Xhl=1.71 Xht=1.71 Xlt=1.14 %Rs=[0.55 1.10 1.10] %noloadloss=0.44 %imag=1.10 Buses=[BUSMVAGO721.3.0 BUSLVAGO105.1.0 BUSLVAGO105.0.2] kvs=[7.22 0.12 0.12] kVAs=[37.5 37.5 37.5] conns=[wye wye wye] Taps=[1.00, 1, 1] normhkva=37.5 !GroupMV=NULL !GroupLV=NULL
new transformer.AGO1P_106 phases=1 windings=3 Xhl=1.86 Xht=1.86 Xlt=1.24 %Rs=[0.55 1.10 1.10]  %noloadloss=0.37 %imag=1.00 Buses=[BUSMVAGO943.1.0 BUSLVAGO106.1.0 BUSLVAGO106.0.2] kvs=[7.22 0.12 0.12] kVAs=[50.0 50.0 50.0] conns=[wye wye wye] Taps=[1.00, 1, 1] normhkva=50.0 !GroupMV=NULL !GroupLV=NULL
new transformer.AGO1P_107 phases=1 windings=3 Xhl=1.71 Xht=1.71 Xlt=1.14 %Rs=[0.55 1.10 1.10] %noloadloss=0.44 %imag=1.10 Buses=[BUSMVAGO944.3.0 BUSLVAGO107.1.0 BUSLVAGO107.0.2] kvs=[7.22 0.12 0.12] kVAs=[37.5 37.5 37.5] conns=[wye wye wye] Taps=[1.00, 1, 1] normhkva=37.5 !GroupMV=NULL !GroupLV=NULL
new transformer.AGO1P_108 phases=1 windings=3 Xhl=1.71 Xht=1.71 Xlt=1.14 %Rs=[0.55 1.10 1.10] %noloadloss=0.44 %imag=1.10 Buses=[BUSMVAGO131.3.0 BUSLVAGO108.1.0 BUSLVAGO108.0.2] kvs=[7.22 0.12 0.12] kVAs=[37.5 37.5 37.5] conns=[wye wye wye] Taps=[1.00, 1, 1] normhkva=37.5 !GroupMV=NULL !GroupLV=NULL
new transformer.AGO1P_109 phases=1 windings=3 Xhl=1.49 Xht=1.49 Xlt=1.00 %Rs=[0.65 1.30 1.30] %noloadloss=0.47 %imag=1.30 Buses=[BUSMVAGO1008.1.0 BUSLVAGO109.1.0 BUSLVAGO109.0.2] kvs=[7.22 0.12 0.12] kVAs=[25.0 25.0 25.0] conns=[wye wye wye] Taps=[1.00, 1, 1] normhkva=25.0 !GroupMV=NULL !GroupLV=NULL
new transformer.AGO1P_110 phases=1 windings=3 Xhl=1.86 Xht=1.86 Xlt=1.24 %Rs=[0.55 1.10 1.10]  %noloadloss=0.37 %imag=1.00 Buses=[BUSMVAGO1023.1.0 BUSLVAGO110.1.0 BUSLVAGO110.0.2] kvs=[7.22 0.12 0.12] kVAs=[50.0 50.0 50.0] conns=[wye wye wye] Taps=[1.00, 1, 1] normhkva=50.0 !GroupMV=NULL !GroupLV=NULL
new transformer.AGO1P_111 phases=1 windings=3 Xhl=1.49 Xht=1.49 Xlt=1.00 %Rs=[0.65 1.30 1.30] %noloadloss=0.47 %imag=1.30 Buses=[BUSMVAGO1024.1.0 BUSLVAGO111.1.0 BUSLVAGO111.0.2] kvs=[7.22 0.12 0.12] kVAs=[25.0 25.0 25.0] conns=[wye wye wye] Taps=[1.00, 1, 1] normhkva=25.0 !GroupMV=NULL !GroupLV=NULL
new transformer.AGO1P_112 phases=1 windings=3 Xhl=1.49 Xht=1.49 Xlt=1.00 %Rs=[0.65 1.30 1.30] %noloadloss=0.47 %imag=1.30 Buses=[BUSMVAGO965.1.0 BUSLVAGO112.1.0 BUSLVAGO112.0.2] kvs=[7.22 0.12 0.12] kVAs=[25.0 25.0 25.0] conns=[wye wye wye] Taps=[1.00, 1, 1] normhkva=25.0 !GroupMV=NULL !GroupLV=NULL
new transformer.AGO1P_113 phases=1 windings=3 Xhl=1.80 Xht=1.80 Xlt=1.20 %Rs=[0.50 1.00 1.00] %noloadloss=0.38 %imag=1.40 Buses=[BUSMVAGO974.2.0 BUSLVAGO113.1.0 BUSLVAGO113.0.2] kvs=[7.22 0.12 0.12] kVAs=[75.0 75.0 75.0] conns=[wye wye wye] Taps=[1.00, 1, 1] normhkva=75.0 !GroupMV=NULL !GroupLV=NULL
new transformer.AGO1P_114 phases=1 windings=3 Xhl=1.80 Xht=1.80 Xlt=1.20 %Rs=[0.50 1.00 1.00] %noloadloss=0.38 %imag=1.40 Buses=[BUSMVAGO210.1.0 BUSLVAGO114.1.0 BUSLVAGO114.0.2] kvs=[7.22 0.12 0.12] kVAs=[75.0 75.0 75.0] conns=[wye wye wye] Taps=[1.00, 1, 1] normhkva=75.0 !GroupMV=NULL !GroupLV=NULL
new transformer.AGO1P_115 phases=1 windings=3 Xhl=1.86 Xht=1.86 Xlt=1.24 %Rs=[0.55 1.10 1.10]  %noloadloss=0.37 %imag=1.00 Buses=[BUSMVAGO1037.1.0 BUSLVAGO115.1.0 BUSLVAGO115.0.2] kvs=[7.22 0.12 0.12] kVAs=[50.0 50.0 50.0] conns=[wye wye wye] Taps=[1.00, 1, 1] normhkva=50.0 !GroupMV=NULL !GroupLV=NULL
new transformer.AGO1P_116 phases=1 windings=3 Xhl=1.86 Xht=1.86 Xlt=1.24 %Rs=[0.55 1.10 1.10]  %noloadloss=0.37 %imag=1.00 Buses=[BUSMVAGO211.3.0 BUSLVAGO116.1.0 BUSLVAGO116.0.2] kvs=[7.22 0.12 0.12] kVAs=[50.0 50.0 50.0] conns=[wye wye wye] Taps=[1.00, 1, 1] normhkva=50.0 !GroupMV=NULL !GroupLV=NULL
new transformer.AGO1P_117 phases=1 windings=3 Xhl=1.80 Xht=1.80 Xlt=1.20 %Rs=[0.50 1.00 1.00] %noloadloss=0.38 %imag=1.40 Buses=[BUSMVAGO1021.1.0 BUSLVAGO117.1.0 BUSLVAGO117.0.2] kvs=[7.22 0.12 0.12] kVAs=[75.0 75.0 75.0] conns=[wye wye wye] Taps=[1.00, 1, 1] normhkva=75.0 !GroupMV=NULL !GroupLV=NULL
new transformer.AGO1P_118 phases=1 windings=3 Xhl=1.49 Xht=1.49 Xlt=1.00 %Rs=[0.65 1.30 1.30] %noloadloss=0.47 %imag=1.30 Buses=[BUSMVAGO1000.1.0 BUSLVAGO118.1.0 BUSLVAGO118.0.2] kvs=[7.22 0.12 0.12] kVAs=[25.0 25.0 25.0] conns=[wye wye wye] Taps=[1.00, 1, 1] normhkva=25.0 !GroupMV=NULL !GroupLV=NULL
new transformer.AGO1P_119 phases=1 windings=3 Xhl=1.86 Xht=1.86 Xlt=1.24 %Rs=[0.55 1.10 1.10]  %noloadloss=0.37 %imag=1.00 Buses=[BUSMVAGO957.3.0 BUSLVAGO119.1.0 BUSLVAGO119.0.2] kvs=[7.22 0.12 0.12] kVAs=[50.0 50.0 50.0] conns=[wye wye wye] Taps=[1.00, 1, 1] normhkva=50.0 !GroupMV=NULL !GroupLV=NULL
new transformer.AGO1P_120 phases=1 windings=3 Xhl=1.71 Xht=1.71 Xlt=1.14 %Rs=[0.55 1.10 1.10] %noloadloss=0.44 %imag=1.10 Buses=[BUSMVAGO1053.1.0 BUSLVAGO120.1.0 BUSLVAGO120.0.2] kvs=[7.22 0.12 0.12] kVAs=[37.5 37.5 37.5] conns=[wye wye wye] Taps=[1.00, 1, 1] normhkva=37.5 !GroupMV=NULL !GroupLV=NULL
new transformer.AGO1P_121 phases=1 windings=3 Xhl=2.14 Xht=2.14 Xlt=1.43 %Rs=[0.45 0.90 0.90] %noloadloss=0.36 %imag=1.30 Buses=[BUSMVAGO2206.2.0 BUSLVAGO121.1.0 BUSLVAGO121.0.2] kvs=[7.22 0.12 0.12] kVAs=[100.0 100.0 100.0] conns=[wye wye wye] Taps=[1.00, 1, 1] normhkva=100.0 !GroupMV=NULL !GroupLV=NULL
new transformer.AGO1P_122 phases=1 windings=3 Xhl=2.14 Xht=2.14 Xlt=1.43 %Rs=[0.45 0.90 0.90] %noloadloss=0.36 %imag=1.30 Buses=[BUSMVAGO742.3.0 BUSLVAGO122.1.0 BUSLVAGO122.0.2] kvs=[7.22 0.12 0.12] kVAs=[100.0 100.0 100.0] conns=[wye wye wye] Taps=[1.00, 1, 1] normhkva=100.0 !GroupMV=NULL !GroupLV=NULL
new transformer.AGO1P_123 phases=1 windings=3 Xhl=1.71 Xht=1.71 Xlt=1.14 %Rs=[0.55 1.10 1.10] %noloadloss=0.44 %imag=1.10 Buses=[BUSMVAGO993.2.0 BUSLVAGO123.1.0 BUSLVAGO123.0.2] kvs=[7.22 0.12 0.12] kVAs=[37.5 37.5 37.5] conns=[wye wye wye] Taps=[1.00, 1, 1] normhkva=37.5 !GroupMV=NULL !GroupLV=NULL
new transformer.AGO1P_124 phases=1 windings=3 Xhl=1.71 Xht=1.71 Xlt=1.14 %Rs=[0.55 1.10 1.10] %noloadloss=0.44 %imag=1.10 Buses=[BUSMVAGO967.3.0 BUSLVAGO124.1.0 BUSLVAGO124.0.2] kvs=[7.22 0.12 0.12] kVAs=[37.5 37.5 37.5] conns=[wye wye wye] Taps=[1.00, 1, 1] normhkva=37.5 !GroupMV=NULL !GroupLV=NULL
new transformer.AGO1P_125 phases=1 windings=3 Xhl=1.71 Xht=1.71 Xlt=1.14 %Rs=[0.55 1.10 1.10] %noloadloss=0.44 %imag=1.10 Buses=[BUSMVAGO738.3.0 BUSLVAGO125.1.0 BUSLVAGO125.0.2] kvs=[7.22 0.12 0.12] kVAs=[37.5 37.5 37.5] conns=[wye wye wye] Taps=[1.00, 1, 1] normhkva=37.5 !GroupMV=NULL !GroupLV=NULL
new transformer.AGO1P_126 phases=1 windings=3 Xhl=1.71 Xht=1.71 Xlt=1.14 %Rs=[0.55 1.10 1.10] %noloadloss=0.44 %imag=1.10 Buses=[BUSMVAGO996.2.0 BUSLVAGO126.1.0 BUSLVAGO126.0.2] kvs=[7.22 0.12 0.12] kVAs=[37.5 37.5 37.5] conns=[wye wye wye] Taps=[1.00, 1, 1] normhkva=37.5 !GroupMV=NULL !GroupLV=NULL
new transformer.AGO1P_127 phases=1 windings=3 Xhl=1.71 Xht=1.71 Xlt=1.14 %Rs=[0.55 1.10 1.10] %noloadloss=0.44 %imag=1.10 Buses=[BUSMVAGO736.3.0 BUSLVAGO127.1.0 BUSLVAGO127.0.2] kvs=[7.22 0.12 0.12] kVAs=[37.5 37.5 37.5] conns=[wye wye wye] Taps=[1.00, 1, 1] normhkva=37.5 !GroupMV=NULL !GroupLV=NULL
new transformer.AGO1P_128 phases=1 windings=3 Xhl=1.71 Xht=1.71 Xlt=1.14 %Rs=[0.55 1.10 1.10] %noloadloss=0.44 %imag=1.10 Buses=[BUSMVAGO977.2.0 BUSLVAGO128.1.0 BUSLVAGO128.0.2] kvs=[7.22 0.12 0.12] kVAs=[37.5 37.5 37.5] conns=[wye wye wye] Taps=[1.00, 1, 1] normhkva=37.5 !GroupMV=NULL !GroupLV=NULL
new transformer.AGO1P_129 phases=1 windings=3 Xhl=1.86 Xht=1.86 Xlt=1.24 %Rs=[0.55 1.10 1.10]  %noloadloss=0.37 %imag=1.00 Buses=[BUSMVAGO1049.1.0 BUSLVAGO129.1.0 BUSLVAGO129.0.2] kvs=[7.22 0.12 0.12] kVAs=[50.0 50.0 50.0] conns=[wye wye wye] Taps=[1.00, 1, 1] normhkva=50.0 !GroupMV=NULL !GroupLV=NULL
new transformer.AGO1P_130 phases=1 windings=3 Xhl=1.80 Xht=1.80 Xlt=1.20 %Rs=[0.50 1.00 1.00] %noloadloss=0.38 %imag=1.40 Buses=[BUSMVAGO2203.1.0 BUSLVAGO130.1.0 BUSLVAGO130.0.2] kvs=[7.22 0.12 0.12] kVAs=[75.0 75.0 75.0] conns=[wye wye wye] Taps=[1.00, 1, 1] normhkva=75.0 !GroupMV=NULL !GroupLV=NULL
new transformer.AGO1P_131 phases=1 windings=3 Xhl=1.49 Xht=1.49 Xlt=1.00 %Rs=[0.65 1.30 1.30] %noloadloss=0.47 %imag=1.30 Buses=[BUSMVAGO1034.1.0 BUSLVAGO131.1.0 BUSLVAGO131.0.2] kvs=[7.22 0.12 0.12] kVAs=[25.0 25.0 25.0] conns=[wye wye wye] Taps=[1.00, 1, 1] normhkva=25.0 !GroupMV=NULL !GroupLV=NULL
new transformer.AGO1P_132 phases=1 windings=3 Xhl=1.86 Xht=1.86 Xlt=1.24 %Rs=[0.55 1.10 1.10]  %noloadloss=0.37 %imag=1.00 Buses=[BUSMVAGO1077.1.0 BUSLVAGO132.1.0 BUSLVAGO132.0.2] kvs=[7.22 0.12 0.12] kVAs=[50.0 50.0 50.0] conns=[wye wye wye] Taps=[1.00, 1, 1] normhkva=50.0 !GroupMV=NULL !GroupLV=NULL
new transformer.AGO1P_133 phases=1 windings=3 Xhl=1.19 Xht=1.19 Xlt=0.80 %Rs=[0.75 1.50 1.50] %noloadloss=0.56 %imag=1.40 Buses=[BUSMVAGO950.3.0 BUSLVAGO133.1.0 BUSLVAGO133.0.2] kvs=[7.22 0.12 0.12] kVAs=[15.0 15.0 15.0] conns=[wye wye wye] Taps=[1.00, 1, 1] normhkva=15.0 !GroupMV=NULL !GroupLV=NULL
new transformer.AGO1P_134 phases=1 windings=3 Xhl=1.86 Xht=1.86 Xlt=1.24 %Rs=[0.55 1.10 1.10]  %noloadloss=0.37 %imag=1.00 Buses=[BUSMVAGO979.3.0 BUSLVAGO134.1.0 BUSLVAGO134.0.2] kvs=[7.22 0.12 0.12] kVAs=[50.0 50.0 50.0] conns=[wye wye wye] Taps=[1.00, 1, 1] normhkva=50.0 !GroupMV=NULL !GroupLV=NULL
new transformer.AGO1P_135 phases=1 windings=3 Xhl=2.14 Xht=2.14 Xlt=1.43 %Rs=[0.45 0.90 0.90] %noloadloss=0.36 %imag=1.30 Buses=[BUSMVAGO2204.3.0 BUSLVAGO135.1.0 BUSLVAGO135.0.2] kvs=[7.22 0.12 0.12] kVAs=[100.0 100.0 100.0] conns=[wye wye wye] Taps=[1.00, 1, 1] normhkva=100.0 !GroupMV=NULL !GroupLV=NULL
new transformer.AGO1P_136 phases=1 windings=3 Xhl=1.86 Xht=1.86 Xlt=1.24 %Rs=[0.55 1.10 1.10]  %noloadloss=0.37 %imag=1.00 Buses=[BUSMVAGO994.1.0 BUSLVAGO136.1.0 BUSLVAGO136.0.2] kvs=[7.22 0.12 0.12] kVAs=[50.0 50.0 50.0] conns=[wye wye wye] Taps=[1.00, 1, 1] normhkva=50.0 !GroupMV=NULL !GroupLV=NULL
new transformer.AGO1P_137 phases=1 windings=3 Xhl=1.86 Xht=1.86 Xlt=1.24 %Rs=[0.55 1.10 1.10]  %noloadloss=0.37 %imag=1.00 Buses=[BUSMVAGO970.2.0 BUSLVAGO137.1.0 BUSLVAGO137.0.2] kvs=[7.22 0.12 0.12] kVAs=[50.0 50.0 50.0] conns=[wye wye wye] Taps=[1.00, 1, 1] normhkva=50.0 !GroupMV=NULL !GroupLV=NULL
new transformer.AGO1P_138 phases=1 windings=3 Xhl=1.80 Xht=1.80 Xlt=1.20 %Rs=[0.50 1.00 1.00] %noloadloss=0.38 %imag=1.40 Buses=[BUSMVAGO224.2.0 BUSLVAGO138.1.0 BUSLVAGO138.0.2] kvs=[7.22 0.12 0.12] kVAs=[75.0 75.0 75.0] conns=[wye wye wye] Taps=[1.00, 1, 1] normhkva=75.0 !GroupMV=NULL !GroupLV=NULL
new transformer.AGO1P_139 phases=1 windings=3 Xhl=1.71 Xht=1.71 Xlt=1.14 %Rs=[0.55 1.10 1.10] %noloadloss=0.44 %imag=1.10 Buses=[BUSMVAGO985.2.0 BUSLVAGO139.1.0 BUSLVAGO139.0.2] kvs=[7.22 0.12 0.12] kVAs=[37.5 37.5 37.5] conns=[wye wye wye] Taps=[1.00, 1, 1] normhkva=37.5 !GroupMV=NULL !GroupLV=NULL
new transformer.AGO1P_140 phases=1 windings=3 Xhl=1.49 Xht=1.49 Xlt=1.00 %Rs=[0.65 1.30 1.30] %noloadloss=0.47 %imag=1.30 Buses=[BUSMVAGO198.1.0 BUSLVAGO140.1.0 BUSLVAGO140.0.2] kvs=[7.22 0.12 0.12] kVAs=[25.0 25.0 25.0] conns=[wye wye wye] Taps=[1.00, 1, 1] normhkva=25.0 !GroupMV=NULL !GroupLV=NULL
new transformer.AGO1P_141 phases=1 windings=3 Xhl=1.71 Xht=1.71 Xlt=1.14 %Rs=[0.55 1.10 1.10] %noloadloss=0.44 %imag=1.10 Buses=[BUSMVAGO987.2.0 BUSLVAGO141.1.0 BUSLVAGO141.0.2] kvs=[7.22 0.12 0.12] kVAs=[37.5 37.5 37.5] conns=[wye wye wye] Taps=[1.00, 1, 1] normhkva=37.5 !GroupMV=NULL !GroupLV=NULL
new transformer.AGO1P_142 phases=1 windings=3 Xhl=1.71 Xht=1.71 Xlt=1.14 %Rs=[0.55 1.10 1.10] %noloadloss=0.44 %imag=1.10 Buses=[BUSMVAGO195.2.0 BUSLVAGO142.1.0 BUSLVAGO142.0.2] kvs=[7.22 0.12 0.12] kVAs=[37.5 37.5 37.5] conns=[wye wye wye] Taps=[1.00, 1, 1] normhkva=37.5 !GroupMV=NULL !GroupLV=NULL
new transformer.AGO1P_143 phases=1 windings=3 Xhl=1.80 Xht=1.80 Xlt=1.20 %Rs=[0.50 1.00 1.00] %noloadloss=0.38 %imag=1.40 Buses=[BUSMVAGO2202.2.0 BUSLVAGO143.1.0 BUSLVAGO143.0.2] kvs=[7.22 0.12 0.12] kVAs=[75.0 75.0 75.0] conns=[wye wye wye] Taps=[1.00, 1, 1] normhkva=75.0 !GroupMV=NULL !GroupLV=NULL
new transformer.AGO1P_144 phases=1 windings=3 Xhl=1.80 Xht=1.80 Xlt=1.20 %Rs=[0.50 1.00 1.00] %noloadloss=0.38 %imag=1.40 Buses=[BUSMVAGO740.3.0 BUSLVAGO144.1.0 BUSLVAGO144.0.2] kvs=[7.22 0.12 0.12] kVAs=[75.0 75.0 75.0] conns=[wye wye wye] Taps=[1.00, 1, 1] normhkva=75.0 !GroupMV=NULL !GroupLV=NULL
new transformer.AGO1P_145 phases=1 windings=3 Xhl=1.80 Xht=1.80 Xlt=1.20 %Rs=[0.50 1.00 1.00] %noloadloss=0.38 %imag=1.40 Buses=[BUSMVAGO2199.1.0 BUSLVAGO145.1.0 BUSLVAGO145.0.2] kvs=[7.22 0.12 0.12] kVAs=[75.0 75.0 75.0] conns=[wye wye wye] Taps=[1.00, 1, 1] normhkva=75.0 !GroupMV=NULL !GroupLV=NULL
new transformer.AGO1P_146 phases=1 windings=3 Xhl=1.71 Xht=1.71 Xlt=1.14 %Rs=[0.55 1.10 1.10] %noloadloss=0.44 %imag=1.10 Buses=[BUSMVAGO2207.2.0 BUSLVAGO146.1.0 BUSLVAGO146.0.2] kvs=[7.22 0.12 0.12] kVAs=[37.5 37.5 37.5] conns=[wye wye wye] Taps=[1.00, 1, 1] normhkva=37.5 !GroupMV=NULL !GroupLV=NULL
new transformer.AGO1P_147 phases=1 windings=3 Xhl=1.86 Xht=1.86 Xlt=1.24 %Rs=[0.55 1.10 1.10]  %noloadloss=0.37 %imag=1.00 Buses=[BUSMVAGO188.1.0 BUSLVAGO147.1.0 BUSLVAGO147.0.2] kvs=[7.22 0.12 0.12] kVAs=[50.0 50.0 50.0] conns=[wye wye wye] Taps=[1.00, 1, 1] normhkva=50.0 !GroupMV=NULL !GroupLV=NULL
new transformer.AGO1P_148 phases=1 windings=3 Xhl=1.80 Xht=1.80 Xlt=1.20 %Rs=[0.50 1.00 1.00] %noloadloss=0.38 %imag=1.40 Buses=[BUSMVAGO734.3.0 BUSLVAGO148.1.0 BUSLVAGO148.0.2] kvs=[7.22 0.12 0.12] kVAs=[75.0 75.0 75.0] conns=[wye wye wye] Taps=[1.00, 1, 1] normhkva=75.0 !GroupMV=NULL !GroupLV=NULL
new transformer.AGO1P_149 phases=1 windings=3 Xhl=1.86 Xht=1.86 Xlt=1.24 %Rs=[0.55 1.10 1.10]  %noloadloss=0.37 %imag=1.00 Buses=[BUSMVAGO960.2.0 BUSLVAGO149.1.0 BUSLVAGO149.0.2] kvs=[7.22 0.12 0.12] kVAs=[50.0 50.0 50.0] conns=[wye wye wye] Taps=[1.00, 1, 1] normhkva=50.0 !GroupMV=NULL !GroupLV=NULL
new transformer.AGO1P_150 phases=1 windings=3 Xhl=1.80 Xht=1.80 Xlt=1.20 %Rs=[0.50 1.00 1.00] %noloadloss=0.38 %imag=1.40 Buses=[BUSMVAGO1042.1.0 BUSLVAGO150.1.0 BUSLVAGO150.0.2] kvs=[7.22 0.12 0.12] kVAs=[75.0 75.0 75.0] conns=[wye wye wye] Taps=[1.00, 1, 1] normhkva=75.0 !GroupMV=NULL !GroupLV=NULL
new transformer.AGO1P_151 phases=1 windings=3 Xhl=1.86 Xht=1.86 Xlt=1.24 %Rs=[0.55 1.10 1.10]  %noloadloss=0.37 %imag=1.00 Buses=[BUSMVAGO228.2.0 BUSLVAGO151.1.0 BUSLVAGO151.0.2] kvs=[7.22 0.12 0.12] kVAs=[50.0 50.0 50.0] conns=[wye wye wye] Taps=[1.00, 1, 1] normhkva=50.0 !GroupMV=NULL !GroupLV=NULL
new transformer.AGO1P_152 phases=1 windings=3 Xhl=1.80 Xht=1.80 Xlt=1.20 %Rs=[0.50 1.00 1.00] %noloadloss=0.38 %imag=1.40 Buses=[BUSMVAGO1055.1.0 BUSLVAGO152.1.0 BUSLVAGO152.0.2] kvs=[7.22 0.12 0.12] kVAs=[75.0 75.0 75.0] conns=[wye wye wye] Taps=[1.00, 1, 1] normhkva=75.0 !GroupMV=NULL !GroupLV=NULL
new transformer.AGO1P_153 phases=1 windings=3 Xhl=1.49 Xht=1.49 Xlt=1.00 %Rs=[0.65 1.30 1.30] %noloadloss=0.47 %imag=1.30 Buses=[BUSMVAGO964.3.0 BUSLVAGO153.1.0 BUSLVAGO153.0.2] kvs=[7.22 0.12 0.12] kVAs=[25.0 25.0 25.0] conns=[wye wye wye] Taps=[1.00, 1, 1] normhkva=25.0 !GroupMV=NULL !GroupLV=NULL
new transformer.AGO1P_154 phases=1 windings=3 Xhl=2.14 Xht=2.14 Xlt=1.43 %Rs=[0.45 0.90 0.90] %noloadloss=0.36 %imag=1.30 Buses=[BUSMVAGO732.3.0 BUSLVAGO154.1.0 BUSLVAGO154.0.2] kvs=[7.22 0.12 0.12] kVAs=[100.0 100.0 100.0] conns=[wye wye wye] Taps=[1.00, 1, 1] normhkva=100.0 !GroupMV=NULL !GroupLV=NULL
new transformer.AGO1P_155 phases=1 windings=3 Xhl=1.71 Xht=1.71 Xlt=1.14 %Rs=[0.55 1.10 1.10] %noloadloss=0.44 %imag=1.10 Buses=[BUSMVAGO1079.1.0 BUSLVAGO155.1.0 BUSLVAGO155.0.2] kvs=[7.22 0.12 0.12] kVAs=[37.5 37.5 37.5] conns=[wye wye wye] Taps=[1.00, 1, 1] normhkva=37.5 !GroupMV=NULL !GroupLV=NULL
new transformer.AGO1P_156 phases=1 windings=3 Xhl=1.86 Xht=1.86 Xlt=1.24 %Rs=[0.55 1.10 1.10]  %noloadloss=0.37 %imag=1.00 Buses=[BUSMVAGO1031.1.0 BUSLVAGO156.1.0 BUSLVAGO156.0.2] kvs=[7.22 0.12 0.12] kVAs=[50.0 50.0 50.0] conns=[wye wye wye] Taps=[1.00, 1, 1] normhkva=50.0 !GroupMV=NULL !GroupLV=NULL
new transformer.AGO1P_157 phases=1 windings=3 Xhl=1.49 Xht=1.49 Xlt=1.00 %Rs=[0.65 1.30 1.30] %noloadloss=0.47 %imag=1.30 Buses=[BUSMVAGO998.1.0 BUSLVAGO157.1.0 BUSLVAGO157.0.2] kvs=[7.22 0.12 0.12] kVAs=[25.0 25.0 25.0] conns=[wye wye wye] Taps=[1.00, 1, 1] normhkva=25.0 !GroupMV=NULL !GroupLV=NULL
new transformer.AGO1P_158 phases=1 windings=3 Xhl=1.86 Xht=1.86 Xlt=1.24 %Rs=[0.55 1.10 1.10]  %noloadloss=0.37 %imag=1.00 Buses=[BUSMVAGO2208.2.0 BUSLVAGO158.1.0 BUSLVAGO158.0.2] kvs=[7.22 0.12 0.12] kVAs=[50.0 50.0 50.0] conns=[wye wye wye] Taps=[1.00, 1, 1] normhkva=50.0 !GroupMV=NULL !GroupLV=NULL
new transformer.AGO1P_159 phases=1 windings=3 Xhl=1.86 Xht=1.86 Xlt=1.24 %Rs=[0.55 1.10 1.10]  %noloadloss=0.37 %imag=1.00 Buses=[BUSMVAGO962.2.0 BUSLVAGO159.1.0 BUSLVAGO159.0.2] kvs=[7.22 0.12 0.12] kVAs=[50.0 50.0 50.0] conns=[wye wye wye] Taps=[1.00, 1, 1] normhkva=50.0 !GroupMV=NULL !GroupLV=NULL
new transformer.AGO1P_160 phases=1 windings=3 Xhl=1.80 Xht=1.80 Xlt=1.20 %Rs=[0.50 1.00 1.00] %noloadloss=0.38 %imag=1.40 Buses=[BUSMVAGO199.1.0 BUSLVAGO160.1.0 BUSLVAGO160.0.2] kvs=[7.22 0.12 0.12] kVAs=[75.0 75.0 75.0] conns=[wye wye wye] Taps=[1.00, 1, 1] normhkva=75.0 !GroupMV=NULL !GroupLV=NULL
new transformer.AGO1P_161 phases=1 windings=3 Xhl=1.71 Xht=1.71 Xlt=1.14 %Rs=[0.55 1.10 1.10] %noloadloss=0.44 %imag=1.10 Buses=[BUSMVAGO1059.1.0 BUSLVAGO161.1.0 BUSLVAGO161.0.2] kvs=[7.22 0.12 0.12] kVAs=[37.5 37.5 37.5] conns=[wye wye wye] Taps=[1.00, 1, 1] normhkva=37.5 !GroupMV=NULL !GroupLV=NULL
new transformer.AGO1P_162 phases=1 windings=3 Xhl=1.49 Xht=1.49 Xlt=1.00 %Rs=[0.65 1.30 1.30] %noloadloss=0.47 %imag=1.30 Buses=[BUSMVAGO1041.1.0 BUSLVAGO162.1.0 BUSLVAGO162.0.2] kvs=[7.22 0.12 0.12] kVAs=[25.0 25.0 25.0] conns=[wye wye wye] Taps=[1.00, 1, 1] normhkva=25.0 !GroupMV=NULL !GroupLV=NULL
new transformer.AGO1P_163 phases=1 windings=3 Xhl=1.80 Xht=1.80 Xlt=1.20 %Rs=[0.50 1.00 1.00] %noloadloss=0.38 %imag=1.40 Buses=[BUSMVAGO1057.1.0 BUSLVAGO163.1.0 BUSLVAGO163.0.2] kvs=[7.22 0.12 0.12] kVAs=[75.0 75.0 75.0] conns=[wye wye wye] Taps=[1.00, 1, 1] normhkva=75.0 !GroupMV=NULL !GroupLV=NULL
new transformer.AGO1P_164 phases=1 windings=3 Xhl=1.86 Xht=1.86 Xlt=1.24 %Rs=[0.55 1.10 1.10]  %noloadloss=0.37 %imag=1.00 Buses=[BUSMVAGO2201.1.0 BUSLVAGO164.1.0 BUSLVAGO164.0.2] kvs=[7.22 0.12 0.12] kVAs=[50.0 50.0 50.0] conns=[wye wye wye] Taps=[1.00, 1, 1] normhkva=50.0 !GroupMV=NULL !GroupLV=NULL
new transformer.AGO1P_165 phases=1 windings=3 Xhl=1.49 Xht=1.49 Xlt=1.00 %Rs=[0.65 1.30 1.30] %noloadloss=0.47 %imag=1.30 Buses=[BUSMVAGO975.1.0 BUSLVAGO165.1.0 BUSLVAGO165.0.2] kvs=[7.22 0.12 0.12] kVAs=[25.0 25.0 25.0] conns=[wye wye wye] Taps=[1.00, 1, 1] normhkva=25.0 !GroupMV=NULL !GroupLV=NULL
new transformer.AGO1P_166 phases=1 windings=3 Xhl=1.86 Xht=1.86 Xlt=1.24 %Rs=[0.55 1.10 1.10]  %noloadloss=0.37 %imag=1.00 Buses=[BUSMVAGO1046.1.0 BUSLVAGO166.1.0 BUSLVAGO166.0.2] kvs=[7.22 0.12 0.12] kVAs=[50.0 50.0 50.0] conns=[wye wye wye] Taps=[1.00, 1, 1] normhkva=50.0 !GroupMV=NULL !GroupLV=NULL
new transformer.AGO1P_167 phases=1 windings=3 Xhl=1.86 Xht=1.86 Xlt=1.24 %Rs=[0.55 1.10 1.10]  %noloadloss=0.37 %imag=1.00 Buses=[BUSMVAGO982.3.0 BUSLVAGO167.1.0 BUSLVAGO167.0.2] kvs=[7.22 0.12 0.12] kVAs=[50.0 50.0 50.0] conns=[wye wye wye] Taps=[1.00, 1, 1] normhkva=50.0 !GroupMV=NULL !GroupLV=NULL
new transformer.AGO1P_168 phases=1 windings=3 Xhl=1.71 Xht=1.71 Xlt=1.14 %Rs=[0.55 1.10 1.10] %noloadloss=0.44 %imag=1.10 Buses=[BUSMVAGO741.3.0 BUSLVAGO168.1.0 BUSLVAGO168.0.2] kvs=[7.22 0.12 0.12] kVAs=[37.5 37.5 37.5] conns=[wye wye wye] Taps=[1.00, 1, 1] normhkva=37.5 !GroupMV=NULL !GroupLV=NULL
new transformer.AGO1P_169 phases=1 windings=3 Xhl=1.19 Xht=1.19 Xlt=0.80 %Rs=[0.75 1.50 1.50] %noloadloss=0.56 %imag=1.40 Buses=[BUSMVAGO1056.1.0 BUSLVAGO169.1.0 BUSLVAGO169.0.2] kvs=[7.22 0.12 0.12] kVAs=[15.0 15.0 15.0] conns=[wye wye wye] Taps=[1.00, 1, 1] normhkva=15.0 !GroupMV=NULL !GroupLV=NULL
new transformer.AGO1P_170 phases=1 windings=3 Xhl=1.71 Xht=1.71 Xlt=1.14 %Rs=[0.55 1.10 1.10] %noloadloss=0.44 %imag=1.10 Buses=[BUSMVAGO1065.1.0 BUSLVAGO170.1.0 BUSLVAGO170.0.2] kvs=[7.22 0.12 0.12] kVAs=[37.5 37.5 37.5] conns=[wye wye wye] Taps=[1.00, 1, 1] normhkva=37.5 !GroupMV=NULL !GroupLV=NULL
new transformer.AGO1P_171 phases=1 windings=3 Xhl=1.49 Xht=1.49 Xlt=1.00 %Rs=[0.65 1.30 1.30] %noloadloss=0.47 %imag=1.30 Buses=[BUSMVAGO1016.1.0 BUSLVAGO171.1.0 BUSLVAGO171.0.2] kvs=[7.22 0.12 0.12] kVAs=[25.0 25.0 25.0] conns=[wye wye wye] Taps=[1.00, 1, 1] normhkva=25.0 !GroupMV=NULL !GroupLV=NULL
new transformer.AGO1P_172 phases=1 windings=3 Xhl=1.71 Xht=1.71 Xlt=1.14 %Rs=[0.55 1.10 1.10] %noloadloss=0.44 %imag=1.10 Buses=[BUSMVAGO972.3.0 BUSLVAGO172.1.0 BUSLVAGO172.0.2] kvs=[7.22 0.12 0.12] kVAs=[37.5 37.5 37.5] conns=[wye wye wye] Taps=[1.00, 1, 1] normhkva=37.5 !GroupMV=NULL !GroupLV=NULL
new transformer.AGO1P_173 phases=1 windings=3 Xhl=2.14 Xht=2.14 Xlt=1.43 %Rs=[0.45 0.90 0.90] %noloadloss=0.36 %imag=1.30 Buses=[BUSMVAGO737.3.0 BUSLVAGO173.1.0 BUSLVAGO173.0.2] kvs=[7.22 0.12 0.12] kVAs=[100.0 100.0 100.0] conns=[wye wye wye] Taps=[1.00, 1, 1] normhkva=100.0 !GroupMV=NULL !GroupLV=NULL
new transformer.AGO1P_174 phases=1 windings=3 Xhl=1.49 Xht=1.49 Xlt=1.00 %Rs=[0.65 1.30 1.30] %noloadloss=0.47 %imag=1.30 Buses=[BUSMVAGO1043.1.0 BUSLVAGO174.1.0 BUSLVAGO174.0.2] kvs=[7.22 0.12 0.12] kVAs=[25.0 25.0 25.0] conns=[wye wye wye] Taps=[1.00, 1, 1] normhkva=25.0 !GroupMV=NULL !GroupLV=NULL
new transformer.AGO1P_175 phases=1 windings=3 Xhl=1.71 Xht=1.71 Xlt=1.14 %Rs=[0.55 1.10 1.10] %noloadloss=0.44 %imag=1.10 Buses=[BUSMVAGO1068.1.0 BUSLVAGO175.1.0 BUSLVAGO175.0.2] kvs=[7.22 0.12 0.12] kVAs=[37.5 37.5 37.5] conns=[wye wye wye] Taps=[1.00, 1, 1] normhkva=37.5 !GroupMV=NULL !GroupLV=NULL
new transformer.AGO1P_176 phases=1 windings=3 Xhl=1.86 Xht=1.86 Xlt=1.24 %Rs=[0.55 1.10 1.10]  %noloadloss=0.37 %imag=1.00 Buses=[BUSMVAGO735.3.0 BUSLVAGO176.1.0 BUSLVAGO176.0.2] kvs=[7.22 0.12 0.12] kVAs=[50.0 50.0 50.0] conns=[wye wye wye] Taps=[1.00, 1, 1] normhkva=50.0 !GroupMV=NULL !GroupLV=NULL
new transformer.AGO1P_177 phases=1 windings=3 Xhl=1.86 Xht=1.86 Xlt=1.24 %Rs=[0.55 1.10 1.10]  %noloadloss=0.37 %imag=1.00 Buses=[BUSMVAGO730.3.0 BUSLVAGO177.1.0 BUSLVAGO177.0.2] kvs=[7.22 0.12 0.12] kVAs=[50.0 50.0 50.0] conns=[wye wye wye] Taps=[1.00, 1, 1] normhkva=50.0 !GroupMV=NULL !GroupLV=NULL
new transformer.AGO1P_178 phases=1 windings=3 Xhl=1.86 Xht=1.86 Xlt=1.24 %Rs=[0.55 1.10 1.10]  %noloadloss=0.37 %imag=1.00 Buses=[BUSMVAGO2209.2.0 BUSLVAGO178.1.0 BUSLVAGO178.0.2] kvs=[7.22 0.12 0.12] kVAs=[50.0 50.0 50.0] conns=[wye wye wye] Taps=[1.00, 1, 1] normhkva=50.0 !GroupMV=NULL !GroupLV=NULL
new transformer.AGO1P_179 phases=1 windings=3 Xhl=1.86 Xht=1.86 Xlt=1.24 %Rs=[0.55 1.10 1.10]  %noloadloss=0.37 %imag=1.00 Buses=[BUSMVAGO2205.2.0 BUSLVAGO179.1.0 BUSLVAGO179.0.2] kvs=[7.22 0.12 0.12] kVAs=[50.0 50.0 50.0] conns=[wye wye wye] Taps=[1.00, 1, 1] normhkva=50.0 !GroupMV=NULL !GroupLV=NULL
new transformer.AGO1P_180 phases=1 windings=3 Xhl=1.86 Xht=1.86 Xlt=1.24 %Rs=[0.55 1.10 1.10]  %noloadloss=0.37 %imag=1.00 Buses=[BUSMVAGO1080.1.0 BUSLVAGO180.1.0 BUSLVAGO180.0.2] kvs=[7.22 0.12 0.12] kVAs=[50.0 50.0 50.0] conns=[wye wye wye] Taps=[1.00, 1, 1] normhkva=50.0 !GroupMV=NULL !GroupLV=NULL
new transformer.AGO1P_181 phases=1 windings=3 Xhl=1.71 Xht=1.71 Xlt=1.14 %Rs=[0.55 1.10 1.10] %noloadloss=0.44 %imag=1.10 Buses=[BUSMVAGO1069.1.0 BUSLVAGO181.1.0 BUSLVAGO181.0.2] kvs=[7.22 0.12 0.12] kVAs=[37.5 37.5 37.5] conns=[wye wye wye] Taps=[1.00, 1, 1] normhkva=37.5 !GroupMV=NULL !GroupLV=NULL
new transformer.AGO1P_182 phases=1 windings=3 Xhl=1.71 Xht=1.71 Xlt=1.14 %Rs=[0.55 1.10 1.10] %noloadloss=0.44 %imag=1.10 Buses=[BUSMVAGO1040.1.0 BUSLVAGO182.1.0 BUSLVAGO182.0.2] kvs=[7.22 0.12 0.12] kVAs=[37.5 37.5 37.5] conns=[wye wye wye] Taps=[1.00, 1, 1] normhkva=37.5 !GroupMV=NULL !GroupLV=NULL
new transformer.AGO1P_183 phases=1 windings=3 Xhl=1.71 Xht=1.71 Xlt=1.14 %Rs=[0.55 1.10 1.10] %noloadloss=0.44 %imag=1.10 Buses=[BUSMVAGO739.3.0 BUSLVAGO183.1.0 BUSLVAGO183.0.2] kvs=[7.22 0.12 0.12] kVAs=[37.5 37.5 37.5] conns=[wye wye wye] Taps=[1.00, 1, 1] normhkva=37.5 !GroupMV=NULL !GroupLV=NULL
new transformer.AGO1P_184 phases=1 windings=3 Xhl=1.86 Xht=1.86 Xlt=1.24 %Rs=[0.55 1.10 1.10]  %noloadloss=0.37 %imag=1.00 Buses=[BUSMVAGO186.1.0 BUSLVAGO184.1.0 BUSLVAGO184.0.2] kvs=[7.22 0.12 0.12] kVAs=[50.0 50.0 50.0] conns=[wye wye wye] Taps=[1.00, 1, 1] normhkva=50.0 !GroupMV=NULL !GroupLV=NULL
new transformer.AGO1P_185 phases=1 windings=3 Xhl=1.86 Xht=1.86 Xlt=1.24 %Rs=[0.55 1.10 1.10]  %noloadloss=0.37 %imag=1.00 Buses=[BUSMVAGO218.2.0 BUSLVAGO185.1.0 BUSLVAGO185.0.2] kvs=[7.22 0.12 0.12] kVAs=[50.0 50.0 50.0] conns=[wye wye wye] Taps=[1.00, 1, 1] normhkva=50.0 !GroupMV=NULL !GroupLV=NULL
new transformer.AGO1P_186 phases=1 windings=3 Xhl=1.80 Xht=1.80 Xlt=1.20 %Rs=[0.50 1.00 1.00] %noloadloss=0.38 %imag=1.40 Buses=[BUSMVAGO189.3.0 BUSLVAGO186.1.0 BUSLVAGO186.0.2] kvs=[7.22 0.12 0.12] kVAs=[75.0 75.0 75.0] conns=[wye wye wye] Taps=[1.00, 1, 1] normhkva=75.0 !GroupMV=NULL !GroupLV=NULL
new transformer.AGO1P_187 phases=1 windings=3 Xhl=1.86 Xht=1.86 Xlt=1.24 %Rs=[0.55 1.10 1.10]  %noloadloss=0.37 %imag=1.00 Buses=[BUSMVAGO743.3.0 BUSLVAGO187.1.0 BUSLVAGO187.0.2] kvs=[7.22 0.12 0.12] kVAs=[50.0 50.0 50.0] conns=[wye wye wye] Taps=[1.00, 1, 1] normhkva=50.0 !GroupMV=NULL !GroupLV=NULL
new transformer.AGO1P_188 phases=1 windings=3 Xhl=1.80 Xht=1.80 Xlt=1.20 %Rs=[0.50 1.00 1.00] %noloadloss=0.38 %imag=1.40 Buses=[BUSMVAGO194.2.0 BUSLVAGO188.1.0 BUSLVAGO188.0.2] kvs=[7.22 0.12 0.12] kVAs=[75.0 75.0 75.0] conns=[wye wye wye] Taps=[1.00, 1, 1] normhkva=75.0 !GroupMV=NULL !GroupLV=NULL
new transformer.AGO1P_189 phases=1 windings=3 Xhl=1.49 Xht=1.49 Xlt=1.00 %Rs=[0.65 1.30 1.30] %noloadloss=0.47 %imag=1.30 Buses=[BUSMVAGO1029.1.0 BUSLVAGO189.1.0 BUSLVAGO189.0.2] kvs=[7.22 0.12 0.12] kVAs=[25.0 25.0 25.0] conns=[wye wye wye] Taps=[1.00, 1, 1] normhkva=25.0 !GroupMV=NULL !GroupLV=NULL
new transformer.AGO1P_190 phases=1 windings=3 Xhl=1.49 Xht=1.49 Xlt=1.00 %Rs=[0.65 1.30 1.30] %noloadloss=0.47 %imag=1.30 Buses=[BUSMVAGO203.2.0 BUSLVAGO190.1.0 BUSLVAGO190.0.2] kvs=[7.22 0.12 0.12] kVAs=[25.0 25.0 25.0] conns=[wye wye wye] Taps=[1.00, 1, 1] normhkva=25.0 !GroupMV=NULL !GroupLV=NULL
new transformer.AGO1P_191 phases=1 windings=3 Xhl=2.14 Xht=2.14 Xlt=1.43 %Rs=[0.45 0.90 0.90] %noloadloss=0.36 %imag=1.30 Buses=[BUSMVAGO733.3.0 BUSLVAGO191.1.0 BUSLVAGO191.0.2] kvs=[7.22 0.12 0.12] kVAs=[100.0 100.0 100.0] conns=[wye wye wye] Taps=[1.00, 1, 1] normhkva=100.0 !GroupMV=NULL !GroupLV=NULL
new transformer.AGO1P_192 phases=1 windings=3 Xhl=1.49 Xht=1.49 Xlt=1.00 %Rs=[0.65 1.30 1.30] %noloadloss=0.47 %imag=1.30 Buses=[BUSMVAGO1070.1.0 BUSLVAGO192.1.0 BUSLVAGO192.0.2] kvs=[7.22 0.12 0.12] kVAs=[25.0 25.0 25.0] conns=[wye wye wye] Taps=[1.00, 1, 1] normhkva=25.0 !GroupMV=NULL !GroupLV=NULL
new transformer.AGO1P_193 phases=1 windings=3 Xhl=1.49 Xht=1.49 Xlt=1.00 %Rs=[0.65 1.30 1.30] %noloadloss=0.47 %imag=1.30 Buses=[BUSMVAGO1017.1.0 BUSLVAGO193.1.0 BUSLVAGO193.0.2] kvs=[7.22 0.12 0.12] kVAs=[25.0 25.0 25.0] conns=[wye wye wye] Taps=[1.00, 1, 1] normhkva=25.0 !GroupMV=NULL !GroupLV=NULL
new transformer.AGO1P_194 phases=1 windings=3 Xhl=1.80 Xht=1.80 Xlt=1.20 %Rs=[0.50 1.00 1.00] %noloadloss=0.38 %imag=1.40 Buses=[BUSMVAGO744.3.0 BUSLVAGO194.1.0 BUSLVAGO194.0.2] kvs=[7.22 0.12 0.12] kVAs=[75.0 75.0 75.0] conns=[wye wye wye] Taps=[1.00, 1, 1] normhkva=75.0 !GroupMV=NULL !GroupLV=NULL
new transformer.AGO1P_195 phases=1 windings=3 Xhl=1.80 Xht=1.80 Xlt=1.20 %Rs=[0.50 1.00 1.00] %noloadloss=0.38 %imag=1.40 Buses=[BUSMVAGO745.3.0 BUSLVAGO195.1.0 BUSLVAGO195.0.2] kvs=[7.22 0.12 0.12] kVAs=[75.0 75.0 75.0] conns=[wye wye wye] Taps=[1.00, 1, 1] normhkva=75.0 !GroupMV=NULL !GroupLV=NULL
new transformer.AGO1P_196 phases=1 windings=3 Xhl=2.14 Xht=2.14 Xlt=1.43 %Rs=[0.45 0.90 0.90] %noloadloss=0.36 %imag=1.30 Buses=[BUSMVAGO1072.2.0 BUSLVAGO196.1.0 BUSLVAGO196.0.2] kvs=[7.22 0.12 0.12] kVAs=[100.0 100.0 100.0] conns=[wye wye wye] Taps=[1.00, 1, 1] normhkva=100.0 !GroupMV=NULL !GroupLV=NULL
new transformer.AGO1P_197 phases=1 windings=3 Xhl=1.71 Xht=1.71 Xlt=1.14 %Rs=[0.55 1.10 1.10] %noloadloss=0.44 %imag=1.10 Buses=[BUSMVAGO953.2.0 BUSLVAGO197.1.0 BUSLVAGO197.0.2] kvs=[7.22 0.12 0.12] kVAs=[37.5 37.5 37.5] conns=[wye wye wye] Taps=[1.00, 1, 1] normhkva=37.5 !GroupMV=NULL !GroupLV=NULL
new transformer.AGO1P_198 phases=1 windings=3 Xhl=1.80 Xht=1.80 Xlt=1.20 %Rs=[0.50 1.00 1.00] %noloadloss=0.38 %imag=1.40 Buses=[BUSMVAGO1074.2.0 BUSLVAGO198.1.0 BUSLVAGO198.0.2] kvs=[7.22 0.12 0.12] kVAs=[75.0 75.0 75.0] conns=[wye wye wye] Taps=[1.00, 1, 1] normhkva=75.0 !GroupMV=NULL !GroupLV=NULL
new transformer.AGO1P_199 phases=1 windings=3 Xhl=1.80 Xht=1.80 Xlt=1.20 %Rs=[0.50 1.00 1.00] %noloadloss=0.38 %imag=1.40 Buses=[BUSMVAGO1073.2.0 BUSLVAGO199.1.0 BUSLVAGO199.0.2] kvs=[7.22 0.12 0.12] kVAs=[75.0 75.0 75.0] conns=[wye wye wye] Taps=[1.00, 1, 1] normhkva=75.0 !GroupMV=NULL !GroupLV=NULL
...