QGIS2OPENDSS_AGO30/TEST1708/AGO_LinesLV.dss
new line.LV1FAGO1 bus1=BUSLVAGO579.1.2 bus2=BUSLVAGO214.1.2 Linecode=TRPX2/0AAAC length=2.2838 units=m !1ph_basekV=0.12 Group=NULL
new line.LV1FAGO2 bus1=BUSLVAGO580.1.2 bus2=BUSLVAGO579.1.2 Linecode=TRPX2/0AAAC length=47.7563 units=m !1ph_basekV=0.12 Group=NULL
new line.LV1FAGO3 bus1=BUSLVAGO584.1.2 bus2=BUSLVAGO579.1.2 Linecode=TRPX2/0AAAC length=47.5509 units=m !1ph_basekV=0.12 Group=NULL
new line.LV1FAGO4 bus1=BUSLVAGO611.1.2 bus2=BUSLVAGO579.1.2 Linecode=TRPX2/0AAAC length=9.6543 units=m !1ph_basekV=0.12 Group=NULL
new line.LV1FAGO5 bus1=BUSLVAGO616.1.2 bus2=BUSLVAGO579.1.2 Linecode=TRPX2/0AAAC length=19.7348 units=m !1ph_basekV=0.12 Group=NULL
new line.LV1FAGO6 bus1=BUSLVAGO581.1.2 bus2=BUSLVAGO580.1.2 Linecode=TRPX2/0AAAC length=44.4976 units=m !1ph_basekV=0.12 Group=NULL
new line.LV1FAGO7 bus1=BUSLVAGO610.1.2 bus2=BUSLVAGO580.1.2 Linecode=TRPX2/0AAAC length=19.6864 units=m !1ph_basekV=0.12 Group=NULL
new line.LV1FAGO8 bus1=BUSLVAGO619.1.2 bus2=BUSLVAGO580.1.2 Geometry=1FLV2/0AAAC2/0AAAC length=9.4765 units=m !1ph_basekV=0.12 Group=NULL
new line.LV1FAGO9 bus1=BUSLVAGO624.1.2 bus2=BUSLVAGO580.1.2 Linecode=TRPX2/0AAAC length=1.5888 units=m !1ph_basekV=0.12 Group=NULL
new line.LV1FAGO10 bus1=BUSLVAGO642.1.2 bus2=BUSLVAGO580.1.2 Linecode=TRPX2/0AAAC length=19.6865 units=m !1ph_basekV=0.12 Group=NULL
new line.LV1FAGO11 bus1=BUSLVAGO582.1.2 bus2=BUSLVAGO581.1.2 Linecode=TRPX2/0AAAC length=38.5152 units=m !1ph_basekV=0.12 Group=NULL
new line.LV1FAGO12 bus1=BUSLVAGO617.1.2 bus2=BUSLVAGO581.1.2 Linecode=TRPX2/0AAAC length=8.0542 units=m !1ph_basekV=0.12 Group=NULL
new line.LV1FAGO13 bus1=BUSLVAGO618.1.2 bus2=BUSLVAGO581.1.2 Linecode=TRPX2/0AAAC length=2.3204 units=m !1ph_basekV=0.12 Group=NULL
new line.LV1FAGO14 bus1=BUSLVAGO620.1.2 bus2=BUSLVAGO581.1.2 Linecode=TRPX2/0AAAC length=16.1925 units=m !1ph_basekV=0.12 Group=NULL
new line.LV1FAGO15 bus1=BUSLVAGO621.1.2 bus2=BUSLVAGO581.1.2 Linecode=TRPX2/0AAAC length=22.7351 units=m !1ph_basekV=0.12 Group=NULL
new line.LV1FAGO16 bus1=BUSLVAGO625.1.2 bus2=BUSLVAGO581.1.2 Linecode=TRPX2/0AAAC length=8.0542 units=m !1ph_basekV=0.12 Group=NULL
new line.LV1FAGO17 bus1=BUSLVAGO583.1.2 bus2=BUSLVAGO582.1.2 Linecode=TRPX2/0AAAC length=34.3343 units=m !1ph_basekV=0.12 Group=NULL
new line.LV1FAGO18 bus1=BUSLVAGO609.1.2 bus2=BUSLVAGO582.1.2 Geometry=1FLV2/0AAAC2/0AAAC length=13.9933 units=m !1ph_basekV=0.12 Group=NULL
new line.LV1FAGO19 bus1=BUSLVAGO615.1.2 bus2=BUSLVAGO582.1.2 Linecode=TRPX2/0AAAC length=8.3619 units=m !1ph_basekV=0.12 Group=NULL
new line.LV1FAGO20 bus1=BUSLVAGO638.1.2 bus2=BUSLVAGO582.1.2 Linecode=TRPX2/0AAAC length=13.9933 units=m !1ph_basekV=0.12 Group=NULL
new line.LV1FAGO21 bus1=BUSLVAGO653.1.2 bus2=BUSLVAGO582.1.2 Linecode=TRPX2/0AAAC length=12.3474 units=m !1ph_basekV=0.12 Group=NULL
new line.LV1FAGO22 bus1=BUSLVAGO608.1.2 bus2=BUSLVAGO583.1.2 Linecode=TRPX2/0AAAC length=18.1477 units=m !1ph_basekV=0.12 Group=NULL
new line.LV1FAGO23 bus1=BUSLVAGO623.1.2 bus2=BUSLVAGO583.1.2 Linecode=TRPX2/0AAAC length=8.8679 units=m !1ph_basekV=0.12 Group=NULL
new line.LV1FAGO24 bus1=BUSLVAGO631.1.2 bus2=BUSLVAGO583.1.2 Linecode=TRPX2/0AAAC length=16.6823 units=m !1ph_basekV=0.12 Group=NULL
new line.LV1FAGO25 bus1=BUSLVAGO632.1.2 bus2=BUSLVAGO583.1.2 Linecode=TRPX2/0AAAC length=12.4613 units=m !1ph_basekV=0.12 Group=NULL
new line.LV1FAGO26 bus1=BUSLVAGO633.1.2 bus2=BUSLVAGO583.1.2 Linecode=TRPX2/0AAAC length=14.1440 units=m !1ph_basekV=0.12 Group=NULL
new line.LV1FAGO27 bus1=BUSLVAGO634.1.2 bus2=BUSLVAGO583.1.2 Linecode=TRPX2/0AAAC length=12.4614 units=m !1ph_basekV=0.12 Group=NULL
new line.LV1FAGO28 bus1=BUSLVAGO637.1.2 bus2=BUSLVAGO583.1.2 Linecode=TRPX2/0AAAC length=12.4613 units=m !1ph_basekV=0.12 Group=NULL
new line.LV1FAGO29 bus1=BUSLVAGO585.1.2 bus2=BUSLVAGO584.1.2 Linecode=TRPX2/0AAAC length=67.5727 units=m !1ph_basekV=0.12 Group=NULL
new line.LV1FAGO30 bus1=BUSLVAGO601.1.2 bus2=BUSLVAGO584.1.2 Linecode=TRPX2/0AAAC length=33.6759 units=m !1ph_basekV=0.12 Group=NULL
new line.LV1FAGO31 bus1=BUSLVAGO603.1.2 bus2=BUSLVAGO584.1.2 Linecode=TRPX2/0AAAC length=33.6759 units=m !1ph_basekV=0.12 Group=NULL
new line.LV1FAGO32 bus1=BUSLVAGO640.1.2 bus2=BUSLVAGO584.1.2 Linecode=TRPX2/0AAAC length=8.0379 units=m !1ph_basekV=0.12 Group=NULL
new line.LV1FAGO33 bus1=BUSLVAGO586.1.2 bus2=BUSLVAGO585.1.2 Linecode=TRPX2/0AAAC length=37.0929 units=m !1ph_basekV=0.12 Group=NULL
new line.LV1FAGO34 bus1=BUSLVAGO600.1.2 bus2=BUSLVAGO585.1.2 Linecode=TRPX2/0AAAC length=18.5986 units=m !1ph_basekV=0.12 Group=NULL
new line.LV1FAGO35 bus1=BUSLVAGO630.1.2 bus2=BUSLVAGO585.1.2 Linecode=TRPX2/0AAAC length=18.2559 units=m !1ph_basekV=0.12 Group=NULL
new line.LV1FAGO36 bus1=BUSLVAGO635.1.2 bus2=BUSLVAGO585.1.2 Geometry=1FLV2/0AAAC2/0AAAC length=18.2558 units=m !1ph_basekV=0.12 Group=NULL
new line.LV1FAGO37 bus1=BUSLVAGO599.1.2 bus2=BUSLVAGO586.1.2 Linecode=TRPX2/0AAAC length=0.9814 units=m !1ph_basekV=0.12 Group=NULL
...