QGIS2OPENDSS_AGO30/TEST1708/AGO_EXP_LOSSES.CSV
Element,  Total(W), Total(var),  I2R(W), I2X(var), No-load(W), No-load(var)
Line.MV3PAGO0, 111.2391, 293.5695, 111.2391, 293.5695, 0, 0
Line.MV3PAGO1, 250.0277, 659.9619, 250.0277, 659.9619, 0, 0
Line.MV3PAGO2, 2552.339, 6737.059, 2552.339, 6737.059, 0, 0
Line.MV3PAGO3, 106.7969, 281.8962, 106.7969, 281.8962, 0, 0
Line.MV3PAGO4, 2371.991, 6261.132, 2371.991, 6261.132, 0, 0
Line.MV1PAGO5, 0.005281186, -3.678605, 0.005281186, -3.678605, 0, 0
Line.MV3PAGO6, 434.8829, 1146.536, 434.8829, 1146.536, 0, 0
Line.MV1PAGO7, 0.3887486, -1.002854, 0.3887486, -1.002854, 0, 0
Line.MV1PAGO8, -5.818018E-008, -2.521787, -5.818018E-008, -2.521787, 0, 0
Line.MV3PAGO9, 2454.992, 3237.584, 2454.992, 3237.584, 0, 0
Line.MV3PAGO10, 1781.816, 4704.464, 1781.816, 4704.464, 0, 0
Line.MV3PAGO11, 0.000298152, -7.148683, 0.000298152, -7.148683, 0, 0
Line.MV3PAGO12, 46.74361, 41.80373, 46.74361, 41.80373, 0, 0
Line.MV3PAGO13, 23.37173, 20.90136, 23.37173, 20.90136, 0, 0
Line.MV1PAGO14, 1.007095, -2.597787, 1.007095, -2.597787, 0, 0
Line.MV3PAGO15, 1450.928, 3831.176, 1450.928, 3831.176, 0, 0
Line.MV3PAGO16, 8.969286E-006, -0.4765915, 8.969286E-006, -0.4765915, 0, 0
Line.MV1PAGO17, 0.001570616, -20.52278, 0.001570616, -20.52278, 0, 0
Line.MV1PAGO18, 0.7161924, -1.847227, 0.7161924, -1.847227, 0, 0
Line.MV1PAGO19, 5.361197E-006, -22.50402, 5.361197E-006, -22.50402, 0, 0
Line.MV3PAGO20, 0.0004045815, -146.1941, 0.0004045815, -146.1941, 0, 0
Line.MV3PAGO21, 23.37187, 20.90237, 23.37187, 20.90237, 0, 0
Line.MV3PAGO22, 5.012749, 6.403925, 5.012749, 6.403925, 0, 0
Line.MV3PAGO23, 0.001334856, -12.582, 0.001334856, -12.582, 0, 0
Line.MV3PAGO24, 0.1300245, -13.26542, 0.1300245, -13.26542, 0, 0
Line.MV3PAGO25, 537.5525, 1419.662, 537.5525, 1419.662, 0, 0
Line.MV3PAGO26, 0.2196432, -22.40611, 0.2196432, -22.40611, 0, 0
Line.MV3PAGO27, 0.2372649, -24.60051, 0.2372649, -24.60051, 0, 0
Line.MV3PAGO28, 0.006909544, -25.0731, 0.006909544, -25.0731, 0, 0
Line.MV1PAGO29, 0.02427425, -9.13144, 0.02427425, -9.13144, 0, 0
Line.MV1PAGO30, 0.004747677, -54.70091, 0.004747677, -54.70091, 0, 0
Line.MV1PAGO31, 0.6170235, -1.63424, 0.6170235, -1.63424, 0, 0
Line.MV1PAGO32, 0.9847944, -2.675867, 0.9847944, -2.675867, 0, 0
Line.MV3PAGO33, 5.71283E-007, -22.32222, 5.71283E-007, -22.32222, 0, 0
Line.MV3PAGO34, 0.002178352, -92.17113, 0.002178352, -92.17113, 0, 0
Line.MV1PAGO35, -3.18456E-007, -0.8610038, -3.18456E-007, -0.8610038, 0, 0
Line.MV1PAGO36, 1.99481E-005, -20.6812, 1.99481E-005, -20.6812, 0, 0
Line.MV1PAGO37, 0.03604984, -22.1118, 0.03604984, -22.1118, 0, 0
Line.MV1PAGO38, 0.5731498, -86.14849, 0.5731498, -86.14849, 0, 0
Line.MV3PAGO39, 963.6885, 2545.555, 963.6885, 2545.555, 0, 0
Line.MV3PAGO40, 1357.226, 3585.087, 1357.226, 3585.087, 0, 0
Line.MV3PAGO41, -7.666105E-007, -13.26506, -7.666105E-007, -13.26506, 0, 0
Line.MV3PAGO42, 1426.463, 3767.992, 1426.463, 3767.992, 0, 0
Line.MV3PAGO43, 1670.908, 4414.017, 1670.908, 4414.017, 0, 0
Line.MV3PAGO44, 0.0001071492, -15.23149, 0.0001071492, -15.23149, 0, 0
Line.MV3PAGO45, 1721.881, 4548.621, 1721.881, 4548.621, 0, 0
Line.MV3PAGO46, -7.299834E-007, -10.95957, -7.299834E-007, -10.95957, 0, 0
Line.MV3PAGO47, 1.087042E-007, -11.48492, 1.087042E-007, -11.48492, 0, 0
Line.MV3PAGO48, -4.653923E-007, -10.93963, -4.653923E-007, -10.93963, 0, 0
Line.MV3PAGO49, 0.0006179208, -358.8752, 0.0006179208, -358.8752, 0, 0
Line.MV3PAGO50, 166.2465, 439.1743, 166.2465, 439.1743, 0, 0
Line.MV3PAGO51, 1716.934, 4535.65, 1716.934, 4535.65, 0, 0
Line.MV3PAGO52, -1.689981E-007, -12.49126, -1.689981E-007, -12.49126, 0, 0
Line.MV3PAGO53, 0.0001189554, -24.32346, 0.0001189554, -24.32346, 0, 0
Line.MV3PAGO54, 0.08130492, -20.20227, 0.08130492, -20.20227, 0, 0
Line.MV3PAGO55, 1311.754, 3466.597, 1311.754, 3466.597, 0, 0
Line.MV3PAGO56, 0.08441588, -20.96996, 0.08441588, -20.96996, 0, 0
Line.MV3PAGO57, 1520.307, 4017.762, 1520.307, 4017.762, 0, 0
Line.MV3PAGO58, 0.1168519, -29.01844, 0.1168519, -29.01844, 0, 0
Line.MV3PAGO59, 0.09846957, -24.44532, 0.09846957, -24.44532, 0, 0
Line.MV1PAGO60, 0.7940735, -3.33742, 0.7940735, -3.33742, 0, 0
Line.MV3PAGO61, 34.60073, 91.54787, 34.60073, 91.54787, 0, 0
Line.MV1PAGO62, 1.939781E-005, -1.225504, 1.939781E-005, -1.225504, 0, 0
Line.MV3PAGO63, 1279.304, 3384.842, 1279.304, 3384.842, 0, 0
Line.MV3PAGO64, 1752.48, 4634.21, 1752.48, 4634.21, 0, 0
Line.MV3PAGO65, 393.5435, 1041.253, 393.5435, 1041.253, 0, 0
Line.MV3PAGO66, 0.0005200616, -24.56565, 0.0005200616, -24.56565, 0, 0
Line.MV3PAGO67, 0.0004878716, -22.78107, 0.0004878716, -22.78107, 0, 0
Line.MV1PAGO68, 0.03091953, -0.1003637, 0.03091953, -0.1003637, 0, 0
Line.MV3PAGO69, 1379.866, 3649.46, 1379.866, 3649.46, 0, 0
Line.MV1PAGO70, 0.01355058, -63.16728, 0.01355058, -63.16728, 0, 0
Line.MV1PAGO71, 1.352538, -5.683903, 1.352538, -5.683903, 0, 0
Line.MV1PAGO72, 1.419646, -5.965003, 1.419646, -5.965003, 0, 0
Line.MV3PAGO73, 0.2488712, -12.23909, 0.2488712, -12.23909, 0, 0
Line.MV3PAGO74, 1355.786, 3582.078, 1355.786, 3582.078, 0, 0
Line.MV3PAGO75, 0.8120475, -477.93, 0.8120475, -477.93, 0, 0
Line.MV3PAGO76, 1557.667, 4116.369, 1557.667, 4116.369, 0, 0
Line.MV3PAGO77, 0.002714232, -21.98343, 0.002714232, -21.98343, 0, 0
Line.MV3PAGO78, 650.5088, 1679.312, 650.5088, 1679.312, 0, 0
Line.MV3PAGO79, 325.2536, 839.6495, 325.2536, 839.6495, 0, 0
Line.MV3PAGO80, 0.001850162, -5.427281, 0.001850162, -5.427281, 0, 0
Line.MV3PAGO81, 34.60072, 91.54787, 34.60072, 91.54787, 0, 0
Line.MV3PAGO82, 0.002786825, -95.36014, 0.002786825, -95.36014, 0, 0
Line.MV3PAGO83, 562.1288, 1462.003, 562.1288, 1462.003, 0, 0
Line.MV3PAGO84, 281.0653, 731.0055, 281.0653, 731.0055, 0, 0
Line.MV3PAGO85, 2696.819, 7118.365, 2696.819, 7118.365, 0, 0
Line.MV3PAGO86, 281.0649, 731.0014, 281.0649, 731.0014, 0, 0
Line.MV1PAGO87, 4.937581, 2.693358, 4.937581, 2.693358, 0, 0
Line.MV3PAGO88, 624.9075, 1660.231, 624.9075, 1660.231, 0, 0
Line.MV3PAGO89, 325.2544, 839.6598, 325.2544, 839.6598, 0, 0
Line.MV3PAGO90, 3.467751E-007, -12.37527, 3.467751E-007, -12.37527, 0, 0
Line.MV3PAGO91, 1.589013E-005, -42.05648, 1.589013E-005, -42.05648, 0, 0
Line.MV3PAGO92, 220.9707, 282.3047, 220.9707, 282.3047, 0, 0
Line.MV3PAGO93, 91.34718, 116.6493, 91.34718, 116.6493, 0, 0
Line.MV3PAGO94, 0.01785478, -181.7596, 0.01785478, -181.7596, 0, 0
Line.MV3PAGO95, 54.73979, 69.93226, 54.73979, 69.93226, 0, 0
Line.MV3PAGO96, 108.5886, 139.3095, 108.5886, 139.3095, 0, 0
Line.MV3PAGO97, 180.8335, 231.9989, 180.8335, 231.9989, 0, 0
Line.MV3PAGO98, 1.273542, -7.674936, 1.273542, -7.674936, 0, 0
Line.MV1PAGO99, -9.481131E-008, -4.170602, -9.481131E-008, -4.170602, 0, 0
Line.MV3PAGO100, 183.4381, 233.0465, 183.4381, 233.0465, 0, 0
Line.MV3PAGO101, 171.7838, 223.0108, 171.7838, 223.0108, 0, 0
Line.MV1PAGO102, 0.1244844, 0.03282216, 0.1244844, 0.03282216, 0, 0
Line.MV1PAGO103, 6.110956, 1.612007, 6.110956, 1.612007, 0, 0
Line.MV1PAGO104, 0.1219192, 0.03150516, 0.1219192, 0.03150516, 0, 0
Line.MV1PAGO105, 0.1244882, 0.03282875, 0.1244882, 0.03282875, 0, 0
Line.MV1PAGO106, 0.2301914, 0.04499828, 0.2301914, 0.04499828, 0, 0
Line.MV3PAGO107, 180.0268, 229.4338, 180.0268, 229.4338, 0, 0
Line.MV3PAGO108, 181.7412, 231.6278, 181.7412, 231.6278, 0, 0
Line.MV3PAGO109, 196.2525, 250.1326, 196.2525, 250.1326, 0, 0
Line.MV1PAGO110, 1.181572, -3.124402, 1.181572, -3.124402, 0, 0
Line.MV3PAGO111, 133.4875, 163.6926, 133.4875, 163.6926, 0, 0
Line.MV3PAGO112, 0.004348829, -70.63111, 0.004348829, -70.63111, 0, 0
Line.MV1PAGO113, 4.986397, 0.9752309, 4.986397, 0.9752309, 0, 0
Line.MV1PAGO114, 1.705335, 0.3337027, 1.705335, 0.3337027, 0, 0
Line.MV1PAGO115, 0.2340555, 0.04575377, 0.2340555, 0.04575377, 0, 0
Line.MV1PAGO116, 3.20912, -1.400046, 3.20912, -1.400046, 0, 0
Line.MV1PAGO117, 0.01092609, -1.893196, 0.01092609, -1.893196, 0, 0
Line.MV1PAGO118, 0.04220893, -3.203684, 0.04220893, -3.203684, 0, 0
Line.MV1PAGO119, 1.470552, -6.165647, 1.470552, -6.165647, 0, 0
Line.MV1PAGO120, 8.650675, 2.195436, 8.650675, 2.195436, 0, 0
Line.MV1PAGO121, 0.2372851, -6.108457, 0.2372851, -6.108457, 0, 0
Line.MV1PAGO122, 0.2721157, -4.277231, 0.2721157, -4.277231, 0, 0
Line.MV1PAGO123, 0.2172072, -5.719733, 0.2172072, -5.719733, 0, 0
Line.MV1PAGO124, 3.473695E-005, -2.10305, 3.473695E-005, -2.10305, 0, 0
Line.MV1PAGO125, 1.753393, -4.609828, 1.753393, -4.609828, 0, 0
Line.MV1PAGO126, 0.004303634, -49.62447, 0.004303634, -49.62447, 0, 0
Line.MV1PAGO127, 0.004656449, -53.7281, 0.004656449, -53.7281, 0, 0
Line.MV3PAGO128, 129.7632, 157.6469, 129.7632, 157.6469, 0, 0
Line.MV1PAGO129, 0.02208205, -28.95704, 0.02208205, -28.95704, 0, 0
Line.MV1PAGO130, 0.01246959, -25.14665, 0.01246959, -25.14665, 0, 0
Line.MV1PAGO131, 0.7490786, -138.1638, 0.7490786, -138.1638, 0, 0
Line.MV1PAGO132, 0.1041051, -7.900138, 0.1041051, -7.900138, 0, 0
Line.MV1PAGO133, 0.0658103, -4.992985, 0.0658103, -4.992985, 0, 0
Line.MV1PAGO134, 0.3330227, -5.233778, 0.3330227, -5.233778, 0, 0
Line.MV1PAGO135, 1.524535, -4.007516, 1.524535, -4.007516, 0, 0
Line.MV1PAGO136, 0.6401614, -5.991423, 0.6401614, -5.991423, 0, 0
Line.MV1PAGO137, 0.1135739, -4.091961, 0.1135739, -4.091961, 0, 0
Line.MV1PAGO138, 0.06365917, -4.828972, 0.06365917, -4.828972, 0, 0
Line.MV1PAGO139, 0.07183041, -5.447859, 0.07183041, -5.447859, 0, 0
Line.MV1PAGO140, 0.0001638683, -7.249022, 0.0001638683, -7.249022, 0, 0
Line.MV1PAGO141, 0.0001302656, -5.628473, 0.0001302656, -5.628473, 0, 0
Line.MV3PAGO142, 0.002777577, -3.825528, 0.002777577, -3.825528, 0, 0
Line.MV3PAGO143, 0.007479272, -120.7112, 0.007479272, -120.7112, 0, 0
Line.MV3PAGO144, 169.8085, 206.3066, 169.8085, 206.3066, 0, 0
Line.MV3PAGO145, 156.5139, 191.2216, 156.5139, 191.2216, 0, 0
Line.MV3PAGO146, -3.453602E-007, -20.46802, -3.453602E-007, -20.46802, 0, 0
Line.MV1PAGO147, 0.3354218, -5.408979, 0.3354218, -5.408979, 0, 0
Line.MV1PAGO148, 0.0001303599, -5.52173, 0.0001303599, -5.52173, 0, 0
Line.MV3PAGO149, 71.53993, 87.77099, 71.53993, 87.77099, 0, 0
Line.MV3PAGO150, 0.03487741, -10.25658, 0.03487741, -10.25658, 0, 0
Line.MV1PAGO151, 0.007412582, -0.124983, 0.007412582, -0.124983, 0, 0
Line.MV1PAGO152, 0.1737552, -2.99335, 0.1737552, -2.99335, 0, 0
Line.MV1PAGO153, 0.1561869, -2.732864, 0.1561869, -2.732864, 0, 0
Line.MV1PAGO154, 0.2726089, -4.870152, 0.2726089, -4.870152, 0, 0
Line.MV1PAGO155, 0.300099, -5.583462, 0.300099, -5.583462, 0, 0
Line.MV1PAGO156, 8.227108E-005, -5.050928, 8.227108E-005, -5.050928, 0, 0
Line.MV1PAGO157, 0.0006677567, -7.044101, 0.0006677567, -7.044101, 0, 0
Line.MV1PAGO158, 3.59833E-006, -0.07424302, 3.59833E-006, -0.07424302, 0, 0
Line.MV3PAGO159, -3.242134E-009, -19.06529, -3.242134E-009, -19.06529, 0, 0
Line.MV3PAGO160, 2.463287, -11.23266, 2.463287, -11.23266, 0, 0
Line.MV3PAGO161, 36.02986, 39.0251, 36.02986, 39.0251, 0, 0
Line.MV3PAGO162, 0.2286694, -0.9952738, 0.2286694, -0.9952738, 0, 0
Line.MV3PAGO163, 1.531456, -29.62033, 1.531456, -29.62033, 0, 0
Line.MV3PAGO164, 84.29036, 91.57091, 84.29036, 91.57091, 0, 0
Line.MV3PAGO165, 3.915171, -26.5608, 3.915171, -26.5608, 0, 0
Line.MV3PAGO166, 3.951872, -26.80742, 3.951872, -26.80742, 0, 0
Line.MV1PAGO167, 1.49801, -3.038877, 1.49801, -3.038877, 0, 0
Line.MV3PAGO168, 0.489755, -25.14052, 0.489755, -25.14052, 0, 0
Line.MV1PAGO169, -9.274424E-008, -1.574226, -9.274424E-008, -1.574226, 0, 0
Line.MV3PAGO170, 1.15658, -22.36835, 1.15658, -22.36835, 0, 0
Line.MV3PAGO171, 0.07886578, -23.43682, 0.07886578, -23.43682, 0, 0
Line.MV3PAGO172, 0.08871351, -26.35915, 0.08871351, -26.35915, 0, 0
Line.MV3PAGO173, 0.8560572, -28.41257, 0.8560572, -28.41257, 0, 0
Line.MV3PAGO174, 0.5091763, -17.49196, 0.5091763, -17.49196, 0, 0
Line.MV1PAGO175, 0.0001147355, -12.75484, 0.0001147355, -12.75484, 0, 0
Line.MV3PAGO176, 1.018013, -299.1571, 1.018013, -299.1571, 0, 0
Line.MV3PAGO177, 0.07478225, -21.92885, 0.07478225, -21.92885, 0, 0
Line.MV3PAGO178, 0.07562053, -22.17235, 0.07562053, -22.17235, 0, 0
Line.MV3PAGO179, 0.03629336, -15.9218, 0.03629336, -15.9218, 0, 0
Line.MV3PAGO180, 0.01247676, -40.2863, 0.01247676, -40.2863, 0, 0
Line.MV1PAGO181, 1.300683, -4.229362, 1.300683, -4.229362, 0, 0
Line.MV3PAGO182, 0.2151452, -29.60913, 0.2151452, -29.60913, 0, 0
Line.MV3PAGO183, 0.2527815, -34.78313, 0.2527815, -34.78313, 0, 0
Line.MV3PAGO184, 73.00091, 79.31139, 73.00091, 79.31139, 0, 0
Line.MV3PAGO185, 1.880404E-007, -17.24273, 1.880404E-007, -17.24273, 0, 0
Line.MV3PAGO186, 0.0006121501, -15.61258, 0.0006121501, -15.61258, 0, 0
Line.MV3PAGO187, 88.67094, 97.71634, 88.67094, 97.71634, 0, 0
Line.MV3PAGO188, 0.09342238, -22.98836, 0.09342238, -22.98836, 0, 0
Line.MV3PAGO189, 0.5133669, -17.90758, 0.5133669, -17.90758, 0, 0
Line.MV1PAGO190, 0.001225236, -1.605883, 0.001225236, -1.605883, 0, 0
Line.MV3PAGO191, 0.7865772, -23.22383, 0.7865772, -23.22383, 0, 0
Line.MV3PAGO192, 0.004827054, -8.040984, 0.004827054, -8.040984, 0, 0
Line.MV3PAGO193, 0.04078203, -1.20443, 0.04078203, -1.20443, 0, 0
Line.MV3PAGO194, 0.730469, -25.5035, 0.730469, -25.5035, 0, 0
Line.MV3PAGO195, 0.0002046406, -247.1334, 0.0002046406, -247.1334, 0, 0
Line.MV1PAGO196, 0.0003250334, -1.705428, 0.0003250334, -1.705428, 0, 0
Line.MV3PAGO197, 0.8819108, -30.98254, 0.8819108, -30.98254, 0, 0
Line.MV3PAGO198, 7.858079E-007, -5.477501, 7.858079E-007, -5.477501, 0, 0
Line.MV3PAGO199, 3.353077E-007, -11.43762, 3.353077E-007, -11.43762, 0, 0
...
Transformer.HVMV, 1.396984E-009, 197467.2, 1.396984E-009, 197467.2, 0, 0
Transformer.AGO1P_1, 278.1098, 1024.188, 0.2308552, 0.4233311, 277.8789, 1023.764
Transformer.AGO1P_2, 179.9146, 485.5483, 0.6020452, 0.9196843, 179.3126, 484.6286
Transformer.AGO1P_3, 350.8794, 1266.774, 0.2392878, 0.5741897, 350.6401, 1266.2
Transformer.AGO1P_4, 693.8613, 1185.979, 512.0143, 694.5008, 181.847, 491.4784
Transformer.AGO1P_5, 288.1591, 554.2501, 132.61, 165.3771, 155.5492, 388.873
Transformer.AGO1P_6, 276.1735, 1017.057, 0.229248, 0.4203837, 275.9443, 1016.637
Transformer.AGO1P_7, 160.9703, 402.3748, 0.08469318, 0.160925, 160.8856, 402.2139
Transformer.AGO1P_8, 275.912, 466.3077, 163.7207, 155.9914, 112.1913, 310.3163
Transformer.AGO1P_9, 239.3142, 566.2598, 62.31068, 87.87203, 177.0035, 478.3878
Transformer.AGO1P_10, 230.9987, 554.6803, 53.88881, 76.00488, 177.1099, 478.6755
Transformer.AGO1P_11, 181.6741, 489.0186, 1.595524, 2.319902, 180.0785, 486.6987
Transformer.AGO1P_12, 290.3072, 1040.341, 13.40915, 20.19061, 276.8981, 1020.151
Transformer.AGO1P_13, 290.9111, 1066.595, 2.409623, 3.69447, 288.5014, 1062.9
Transformer.AGO1P_14, 293.3004, 1067.968, 5.810667, 8.795784, 287.4897, 1059.173
Transformer.AGO1P_15, 190.3479, 510.1214, 3.406663, 4.874708, 186.9413, 505.2467
Transformer.AGO1P_16, 81.8964, 204.6229, 0.07475175, 0.06876736, 81.82165, 204.5541
Transformer.AGO1P_17, 295.8502, 482.3922, 184.9841, 175.7413, 110.8661, 306.6509
Transformer.AGO1P_18, 276.8577, 1019.577, 0.2298159, 0.4214251, 276.6279, 1019.155
Transformer.AGO1P_19, 182.9111, 490.1767, 3.284681, 4.699913, 179.6264, 485.4768
Transformer.AGO1P_20, 87.78195, 207.3754, 6.421387, 3.973955, 81.36056, 203.4014
Transformer.AGO1P_21, 278.1177, 1024.217, 0.2308618, 0.4233431, 277.8868, 1023.794
Transformer.AGO1P_22, 236.7115, 497.1636, 71.90007, 85.13498, 164.8114, 412.0286
Transformer.AGO1P_23, 293.5512, 1045.26, 16.62891, 25.02026, 276.9223, 1020.24
Transformer.AGO1P_24, 281.1971, 1027.851, 3.761165, 5.718727, 277.4359, 1022.132
Transformer.AGO1P_25, 326.5774, 1093.242, 50.36829, 75.62924, 276.2091, 1017.612
Transformer.AGO1P_26, 290.3095, 1040.356, 13.40643, 20.18653, 276.9031, 1020.169
Transformer.AGO1P_27, 114.6021, 316.8515, 0.09079716, 0.1181228, 114.5113, 316.7334
Transformer.AGO1P_28, 276.8581, 1019.578, 0.2298162, 0.4214258, 276.6283, 1019.157
Transformer.AGO1P_29, 276.7823, 1014.354, 2.49373, 3.816695, 274.2886, 1010.537
Transformer.AGO1P_30, 159.1995, 397.9485, 0.08376151, 0.1591547, 159.1157, 397.7894
Transformer.AGO1P_31, 277.8309, 1023.161, 0.2306237, 0.4229065, 277.6003, 1022.738
Transformer.AGO1P_32, 203.7398, 528.2554, 17.36761, 24.5468, 186.3722, 503.7086
Transformer.AGO1P_33, 179.3954, 484.8062, 0.09091998, 0.1994409, 179.3045, 484.6068
Transformer.AGO1P_34, 276.7531, 465.9541, 165.1959, 157.3915, 111.5572, 308.5626
Transformer.AGO1P_35, 160.4585, 401.0956, 0.08442391, 0.1604133, 160.3741, 400.9351
Transformer.AGO1P_36, 160.4485, 401.0706, 0.08441867, 0.1604034, 160.3641, 400.9102
Transformer.AGO1P_37, 279.284, 1023.97, 2.311273, 3.543746, 276.9728, 1020.426
Transformer.AGO1P_38, 2757.9, 1954.749, 2684.793, 1771.981, 73.107, 182.7675
Transformer.AGO1P_39, 206.3259, 523.3081, 26.59303, 37.54363, 179.7329, 485.7645
Transformer.AGO1P_40, 277.7409, 621.1668, 99.77392, 140.175, 177.967, 480.9919
Transformer.AGO1P_41, 286.6502, 1055.639, 0.2379445, 0.436331, 286.4122, 1055.203
Transformer.AGO1P_42, 300.0613, 1075.411, 13.80714, 20.79019, 286.2541, 1054.62
Transformer.AGO1P_43, 300.0416, 1075.368, 13.79369, 20.77001, 286.2479, 1054.598
Transformer.AGO1P_44, 303.1466, 1053.931, 28.00438, 40.2496, 275.1422, 1013.682
Transformer.AGO1P_45, 171.0006, 413.8343, 11.38855, 14.80423, 159.612, 399.0301
Transformer.AGO1P_46, 276.8173, 1019.428, 0.2297824, 0.4213638, 276.5876, 1019.007
Transformer.AGO1P_47, 160.4697, 401.1237, 0.08442984, 0.1604246, 160.3853, 400.9633
Transformer.AGO1P_48, 372.2704, 671.8836, 214.7474, 278.0761, 157.523, 393.8075
Transformer.AGO1P_49, 286.7757, 1056.102, 0.2380487, 0.4365221, 286.5377, 1055.665
Transformer.AGO1P_50, 1486.155, 1602.401, 1378.642, 1305.023, 107.5138, 297.3786
Transformer.AGO1P_51, 179.5951, 382.6554, 62.98145, 60.10687, 116.6137, 322.5485
Transformer.AGO1P_52, 179.9645, 486.3441, 0.0912084, 0.2000736, 179.8733, 486.144
Transformer.AGO1P_53, 277.2133, 1020.886, 0.2301111, 0.4219665, 276.9832, 1020.464
Transformer.AGO1P_54, 401.1136, 583.9875, 289.9968, 276.6433, 111.1167, 307.3442
Transformer.AGO1P_55, 307.1951, 1085.628, 21.16216, 31.82269, 286.0329, 1053.806
Transformer.AGO1P_56, 210.6534, 527.751, 32.19961, 45.44331, 178.4538, 482.3077
Transformer.AGO1P_57, 276.6852, 1018.941, 0.2296727, 0.4211626, 276.4555, 1018.52
Transformer.AGO1P_58, 160.5071, 401.2172, 0.08444951, 0.160462, 160.4227, 401.0567
Transformer.AGO1P_59, 286.7757, 1056.102, 0.2380487, 0.4365222, 286.5377, 1055.665
Transformer.AGO1P_60, 218.7514, 547.98, 33.48285, 47.25422, 185.2686, 500.7258
Transformer.AGO1P_61, 251.0943, 523.527, 86.39512, 111.7792, 164.6991, 411.7478
Transformer.AGO1P_62, 181.8491, 428.6902, 21.57138, 27.99586, 160.2777, 400.6943
Transformer.AGO1P_63, 388.3666, 1203.637, 103.4772, 154.0443, 284.8894, 1049.592
Transformer.AGO1P_64, 200.9711, 515.8732, 21.15283, 29.87791, 179.8183, 485.9953
Transformer.AGO1P_65, 165.8852, 414.6606, 0.08727913, 0.1658385, 165.7979, 414.4948
Transformer.AGO1P_66, 160.4531, 401.082, 0.08442106, 0.1604079, 160.3686, 400.9216
Transformer.AGO1P_67, 155.5966, 360.3677, 38.65002, 36.89848, 116.9466, 323.4692
Transformer.AGO1P_68, 249.2455, 589.7059, 64.93762, 91.57654, 184.3079, 498.1294
Transformer.AGO1P_69, 179.9158, 486.2125, 0.09118372, 0.2000194, 179.8246, 486.0125
Transformer.AGO1P_70, 249.9071, 514.6369, 91.33042, 118.1953, 158.5767, 396.4417
Transformer.AGO1P_71, 287.3117, 569.2754, 123.7448, 160.358, 163.5669, 408.9173
Transformer.AGO1P_72, 194.1336, 513.3738, 8.801213, 12.47551, 185.3324, 500.8983
Transformer.AGO1P_73, 206.7706, 530.8972, 21.65712, 30.59061, 185.1134, 500.3066
Transformer.AGO1P_74, 286.7689, 1056.076, 0.238043, 0.4365117, 286.5308, 1055.64
Transformer.AGO1P_75, 211.4415, 466.3597, 51.71657, 67.04746, 159.7249, 399.3123
Transformer.AGO1P_76, 179.8925, 486.1496, 0.09117193, 0.1999936, 179.8014, 485.9496
Transformer.AGO1P_77, 202.9117, 461.4434, 38.09608, 49.40436, 164.8156, 412.0391
Transformer.AGO1P_78, 189.0636, 506.6668, 3.393355, 4.855451, 185.6702, 501.8114
Transformer.AGO1P_79, 160.1571, 400.3421, 0.08426533, 0.160112, 160.0728, 400.182
Transformer.AGO1P_80, 904.6669, 1500.024, 730.2081, 1028.514, 174.4589, 471.5105
Transformer.AGO1P_81, 160.4486, 401.0709, 0.08441872, 0.1604035, 160.3642, 400.9105
Transformer.AGO1P_82, 187.6735, 383.3369, 74.93533, 71.50797, 112.7382, 311.829
Transformer.AGO1P_83, 285.6756, 566.9634, 122.1311, 158.1023, 163.5444, 408.8611
Transformer.AGO1P_84, 219.6779, 475.6609, 61.08894, 79.1886, 158.5889, 396.4723
Transformer.AGO1P_85, 293.8197, 1046.645, 16.39754, 24.56401, 277.4221, 1022.081
Transformer.AGO1P_86, 216.2467, 477.9245, 51.95249, 67.18899, 164.2942, 410.7355
Transformer.AGO1P_87, 299.6232, 1074.626, 13.37769, 20.03706, 286.2455, 1054.589
Transformer.AGO1P_88, 180.0908, 486.6855, 0.09127242, 0.200214, 179.9996, 486.4853
Transformer.AGO1P_89, 179.8925, 486.1496, 0.09117193, 0.1999936, 179.8014, 485.9496
Transformer.AGO1P_90, 234.5424, 427.2064, 122.2656, 116.6537, 112.2767, 310.5527
Transformer.AGO1P_91, 279.2832, 1023.968, 2.310491, 3.542575, 276.9727, 1020.426
Transformer.AGO1P_92, 239.7128, 576.2317, 55.33023, 77.90045, 184.3826, 498.3313
Transformer.AGO1P_93, 350.709, 1263.356, 1.958179, 3.978059, 348.7509, 1259.378
Transformer.AGO1P_94, 278.6064, 551.5665, 120.3773, 155.994, 158.229, 395.5726
Transformer.AGO1P_95, 276.6891, 1018.956, 0.229676, 0.4211686, 276.4594, 1018.535
Transformer.AGO1P_96, 162.3981, 403.5814, 2.046433, 2.702129, 160.3517, 400.8793
Transformer.AGO1P_97, 278.6395, 1026.139, 0.231295, 0.4241375, 278.4082, 1025.715
Transformer.AGO1P_98, 278.6395, 1026.139, 0.231295, 0.4241374, 278.4082, 1025.715
Transformer.AGO1P_99, 162.3957, 403.577, 2.044995, 2.700266, 160.3507, 400.8768
Transformer.AGO1P_100, 162.3953, 403.577, 2.044143, 2.699163, 160.3511, 400.8779
Transformer.AGO1P_101, 349.438, 1261.571, 0.2383048, 0.5718311, 349.1997, 1260.999
Transformer.AGO1P_102, 114.2887, 315.9849, 0.09054883, 0.1177997, 114.1981, 315.8671
Transformer.AGO1P_103, 279.8021, 1022.728, 3.753382, 5.706668, 276.0487, 1017.022
Transformer.AGO1P_104, 166.8906, 408.4667, 7.314501, 9.526454, 159.5761, 398.9402
Transformer.AGO1P_105, 186.9043, 433.7803, 27.83724, 36.11263, 159.0671, 397.6677
Transformer.AGO1P_106, 185.8951, 502.3713, 0.09421412, 0.2066669, 185.8009, 502.1646
Transformer.AGO1P_107, 160.4656, 401.1134, 0.08442767, 0.1604205, 160.3812, 400.953
Transformer.AGO1P_108, 160.1741, 400.3847, 0.08427429, 0.160129, 160.0898, 400.2246
Transformer.AGO1P_109, 128.9894, 334.2827, 12.32454, 11.59262, 116.6649, 322.6901
Transformer.AGO1P_110, 215.8991, 541.6672, 32.29605, 45.44263, 183.6031, 496.2245
Transformer.AGO1P_111, 117.4263, 324.66, 0.09303476, 0.1210338, 117.3333, 324.5389
Transformer.AGO1P_112, 117.8587, 325.8554, 0.09337732, 0.1214794, 117.7653, 325.7339
Transformer.AGO1P_113, 278.3117, 1024.931, 0.2310228, 0.4236384, 278.0807, 1024.508
Transformer.AGO1P_114, 506.4992, 1374.06, 225.2845, 338.0053, 281.2147, 1036.054
Transformer.AGO1P_115, 184.8256, 499.481, 0.09367208, 0.2054779, 184.732, 499.2755
Transformer.AGO1P_116, 179.3419, 484.6615, 0.09089285, 0.1993814, 179.251, 484.4622
Transformer.AGO1P_117, 485.7192, 1341.701, 204.712, 306.4109, 281.0072, 1035.29
Transformer.AGO1P_118, 136.5619, 341.5088, 20.00305, 19.112, 116.5588, 322.3968
Transformer.AGO1P_119, 249.0297, 580.8637, 71.31999, 100.5673, 177.7097, 480.2964
Transformer.AGO1P_120, 164.8449, 412.0602, 0.08673179, 0.1647985, 164.7582, 411.8954
Transformer.AGO1P_121, 352.236, 1271.672, 0.240213, 0.5764098, 351.9958, 1271.096
Transformer.AGO1P_122, 348.9448, 1259.79, 0.2379685, 0.571024, 348.7069, 1259.219
Transformer.AGO1P_123, 161.4205, 403.5003, 0.08493008, 0.1613751, 161.3356, 403.339
Transformer.AGO1P_124, 289.1161, 563.7594, 131.5786, 169.9155, 157.5376, 393.8439
Transformer.AGO1P_125, 194.4411, 442.6286, 35.99327, 46.50907, 158.4478, 396.1196
Transformer.AGO1P_126, 161.4437, 403.5584, 0.0849423, 0.1613983, 161.3588, 403.397
Transformer.AGO1P_127, 159.9052, 399.7124, 0.08413278, 0.1598602, 159.821, 399.5525
Transformer.AGO1P_128, 428.1363, 743.9842, 270.4822, 349.8491, 157.654, 394.135
Transformer.AGO1P_129, 184.8206, 499.4673, 0.09366951, 0.2054722, 184.7269, 499.2619
Transformer.AGO1P_130, 293.4179, 1063.545, 8.033598, 12.12961, 285.3843, 1051.416
Transformer.AGO1P_131, 408.7583, 596.4422, 294.6834, 280.9159, 114.0749, 315.5263
Transformer.AGO1P_132, 184.8058, 499.4275, 0.09366205, 0.2054559, 184.7122, 499.2221
Transformer.AGO1P_133, 81.49463, 203.6191, 0.07438503, 0.06843, 81.42025, 203.5506
Transformer.AGO1P_134, 194.221, 504.4635, 15.75932, 22.13471, 178.4616, 482.3287
Transformer.AGO1P_135, 370.7301, 1301.589, 22.85026, 45.35586, 347.8798, 1256.233
Transformer.AGO1P_136, 420.559, 826.6243, 238.9011, 335.6569, 181.658, 490.9675
Transformer.AGO1P_137, 200.5205, 515.0466, 20.85039, 29.45168, 179.6701, 485.5949
Transformer.AGO1P_138, 311.8114, 1073.041, 34.65997, 51.95745, 277.1514, 1021.084
Transformer.AGO1P_139, 223.2294, 481.1169, 63.7628, 82.4504, 159.4666, 398.6665
Transformer.AGO1P_140, 226.0484, 425.715, 110.1242, 105.0737, 115.9242, 320.6413
Transformer.AGO1P_141, 161.4455, 403.5627, 0.0849432, 0.1614, 161.3605, 403.4013
Transformer.AGO1P_142, 195.3211, 445.7281, 35.38737, 45.89376, 159.9337, 399.8343
Transformer.AGO1P_143, 285.5883, 1035.21, 7.798843, 11.77537, 277.7895, 1023.435
Transformer.AGO1P_144, 276.2996, 1017.522, 0.2293505, 0.4205724, 276.0703, 1017.101
Transformer.AGO1P_145, 293.5361, 1063.671, 8.175469, 12.34241, 285.3606, 1051.329
Transformer.AGO1P_146, 161.9164, 403.9518, 0.7394052, 1.009185, 161.177, 402.9426
Transformer.AGO1P_147, 352.6753, 733.4105, 169.833, 239.2422, 182.8423, 494.1683
Transformer.AGO1P_148, 278.2514, 1019.412, 2.591929, 3.82407, 275.6595, 1015.588
Transformer.AGO1P_149, 225.5805, 549.851, 46.30241, 65.3158, 179.278, 484.5352
Transformer.AGO1P_150, 362.2823, 1159.492, 80.09089, 119.8397, 282.1914, 1039.652
Transformer.AGO1P_151, 221.9792, 544.9597, 42.55974, 60.04211, 179.4195, 484.9176
Transformer.AGO1P_152, 284.7581, 1048.671, 0.2363739, 0.4334509, 284.5217, 1048.238
Transformer.AGO1P_153, 218.3745, 411.2757, 106.3786, 101.4999, 111.9959, 309.7758
Transformer.AGO1P_154, 349.1163, 1260.409, 0.2380854, 0.5713046, 348.8782, 1259.838
Transformer.AGO1P_155, 286.8744, 567.5225, 124.292, 161.0667, 162.5823, 406.4558
Transformer.AGO1P_156, 184.8751, 499.6148, 0.09369717, 0.2055329, 184.7814, 499.4093
Transformer.AGO1P_157, 224.2324, 423.2073, 108.7362, 103.7496, 115.4962, 319.4577
Transformer.AGO1P_158, 183.8928, 492.8066, 3.302966, 4.726062, 180.5898, 488.0805
Transformer.AGO1P_159, 180.6725, 488.2573, 0.09156721, 0.2008607, 180.5809, 488.0565
Transformer.AGO1P_160, 299.2345, 1070.571, 14.56345, 21.7828, 284.671, 1048.788
Transformer.AGO1P_161, 236.4861, 502.4152, 73.62492, 95.26236, 162.8612, 407.1529
Transformer.AGO1P_162, 120.6576, 327.0936, 3.682118, 3.544406, 116.9755, 323.5492
Transformer.AGO1P_163, 284.7577, 1048.67, 0.2363736, 0.4334504, 284.5213, 1048.237
Transformer.AGO1P_164, 185.7814, 502.064, 0.09415649, 0.2065405, 185.6873, 501.8575
Transformer.AGO1P_165, 351.8345, 542.4362, 237.3129, 225.6744, 114.5216, 316.7619
Transformer.AGO1P_166, 221.6339, 549.236, 38.17081, 53.3898, 183.4631, 495.8462
Transformer.AGO1P_167, 223.1926, 544.5716, 45.28486, 63.73982, 177.9077, 480.8317
Transformer.AGO1P_168, 180.3787, 425.1647, 21.44607, 27.8331, 158.9326, 397.3316
Transformer.AGO1P_169, 779.8773, 660.3093, 700.7626, 462.5225, 79.11471, 197.7868
Transformer.AGO1P_170, 164.8475, 412.0667, 0.08673315, 0.1648011, 164.7607, 411.9019
Transformer.AGO1P_171, 177.3761, 378.874, 61.57053, 58.56079, 115.8056, 320.3133
Transformer.AGO1P_172, 186.573, 433.0929, 27.72028, 35.96105, 158.8527, 397.1318
Transformer.AGO1P_173, 348.9322, 1259.745, 0.2379598, 0.5710033, 348.6942, 1259.174
Transformer.AGO1P_174, 164.1803, 366.6736, 48.16385, 45.77717, 116.0164, 320.8965
Transformer.AGO1P_175, 286.0097, 566.3174, 123.4978, 160.0378, 162.5118, 406.2796
Transformer.AGO1P_176, 204.5138, 518.814, 26.28068, 37.1029, 178.2331, 481.7111
Transformer.AGO1P_177, 204.705, 519.3046, 26.30105, 37.13167, 178.404, 482.1729
Transformer.AGO1P_178, 183.8935, 492.8078, 3.303528, 4.726854, 180.5899, 488.0809
Transformer.AGO1P_179, 241.4183, 572.0744, 62.21259, 87.73469, 179.2057, 484.3397
Transformer.AGO1P_180, 184.8737, 499.6109, 0.09369645, 0.2055313, 184.78, 499.4054
Transformer.AGO1P_181, 164.8415, 412.0516, 0.08672998, 0.1647951, 164.7547, 411.8868
Transformer.AGO1P_182, 365.227, 667.4339, 203.4914, 263.095, 161.7355, 404.3388
Transformer.AGO1P_183, 180.3825, 425.1735, 21.44675, 27.83398, 158.9358, 397.3395
Transformer.AGO1P_184, 185.6562, 501.7256, 0.09409303, 0.2064013, 185.5621, 501.5192
Transformer.AGO1P_185, 382.9583, 769.6049, 205.2306, 289.2597, 177.7277, 480.3451
Transformer.AGO1P_186, 276.463, 1018.123, 0.2294883, 0.4208244, 276.2335, 1017.702
Transformer.AGO1P_187, 187.092, 494.823, 8.427796, 11.94668, 178.6642, 482.8763
Transformer.AGO1P_188, 278.5291, 1025.732, 0.2312033, 0.4239693, 278.2979, 1025.308
Transformer.AGO1P_189, 117.4443, 324.7097, 0.09304902, 0.1210523, 117.3513, 324.5887
Transformer.AGO1P_190, 114.8016, 317.403, 0.09095521, 0.1183284, 114.7106, 317.2847
Transformer.AGO1P_191, 349.1166, 1260.41, 0.2380856, 0.5713051, 348.8785, 1259.839
Transformer.AGO1P_192, 117.4125, 324.6218, 0.09302383, 0.1210196, 117.3195, 324.5008
Transformer.AGO1P_193, 117.4296, 324.6689, 0.09303733, 0.1210371, 117.3365, 324.5479
Transformer.AGO1P_194, 283.2195, 1026.511, 7.785756, 11.75509, 275.4337, 1014.756
Transformer.AGO1P_195, 276.4347, 1018.019, 0.2294648, 0.4207814, 276.2053, 1017.598
Transformer.AGO1P_196, 351.4866, 1268.967, 0.2397018, 0.5751834, 351.2469, 1268.391
Transformer.AGO1P_197, 176.2862, 421.5636, 15.94224, 20.70357, 160.344, 400.86
Transformer.AGO1P_198, 278.2959, 1024.873, 0.2310097, 0.4236144, 278.0649, 1024.45
Transformer.AGO1P_199, 278.3019, 1024.895, 0.2310147, 0.4236236, 278.0709, 1024.472
...
Line.LV1FAGO1, 45.98341, 8.706383, 45.98341, 8.706383, 0, 0
Line.LV1FAGO2, 449.3888, 84.93563, 449.3888, 84.93563, 0, 0
Line.LV1FAGO3, 58.22059, 11.31638, 58.22059, 11.31638, 0, 0
Line.LV1FAGO4, 0.244336, 0.04461147, 0.244336, 0.04461147, 0, 0
Line.LV1FAGO5, 0.4992343, 0.09115134, 0.4992343, 0.09115134, 0, 0
Line.LV1FAGO6, 264.5558, 49.09341, 264.5558, 49.09341, 0, 0
...