QGIS2OPENDSS_AGO30/TEST1708/AGO_EXP_VOLTAGES.CSV
Bus, BasekV, Node1, Magnitude1, Angle1, pu1, Node2, Magnitude2, Angle2, pu2, Node3, Magnitude3, Angle3, pu3
"SOURCEBUS", 69, 1,    39737.4,   -0.5,   0.99749, 2,    39693.8, -120.7,    0.9964, 3,    39642.2,  119.5,   0.99511
"BUSMVAGO1", 12.8, 1,    7332.36,  -31.6,   0.99219, 2,    7331.78, -152.0,   0.99211, 3,     7293.4,   87.7,   0.98692
"BUSMVAGO136", 12.505, 1,    7332.29,  -31.6,    1.0156, 2,    7331.56, -152.0,    1.0155, 3,    7293.21,   87.7,    1.0101
"BUSMVAGO3", 12.505, 1,    7272.34,  -32.7,    1.0072, 2,    7154.08, -153.1,   0.99087, 3,    7140.24,   85.2,   0.98895
"BUSMVAGO2", 12.505, 1,    7272.18,  -32.7,    1.0072, 2,    7153.59, -153.1,    0.9908, 3,    7139.84,   85.2,    0.9889
"BUSMVAGO4", 12.505, 1,    7270.52,  -32.8,     1.007, 2,    7148.61, -153.1,   0.99011, 3,    7135.71,   85.1,   0.98833
"BUSMVAGO46", 12.505, 1,    7272.41,  -32.7,    1.0073, 2,    7154.29, -153.1,    0.9909, 3,    7140.41,   85.2,   0.98898
"BUSMVAGO5", 12.505, 1,    7268.99,  -32.8,    1.0068, 2,    7143.96, -153.2,   0.98947, 3,    7131.88,   85.0,    0.9878
"BUSMVAGO862", 12.505, 1,    7270.51,  -32.8,     1.007, 0, 0, 0, 0, 0, 0, 0, 0
"BUSMVAGO6", 12.505, 1,    7268.69,  -32.8,    1.0067, 2,    7143.11, -153.2,   0.98935, 3,    7131.19,   85.0,    0.9877
"BUSMVAGO859", 12.505, 3,    7131.82,   85.0,   0.98779, 0, 0, 0, 0, 0, 0, 0, 0
"BUSMVAGO860", 12.505, 3,    7131.88,   85.0,    0.9878, 0, 0, 0, 0, 0, 0, 0, 0
"BUSMVAGO7", 12.505, 1,    7266.86,  -32.8,    1.0065, 2,    7139.59, -153.2,   0.98886, 3,    7127.86,   85.0,   0.98724
"BUSMVAGO8", 12.505, 1,    7266.19,  -32.8,    1.0064, 2,    7134.18, -153.2,   0.98811, 3,    7124.92,   84.9,   0.98683
"BUSMVAGO9", 12.505, 1,    7266.86,  -32.8,    1.0065, 2,    7139.59, -153.2,   0.98886, 3,    7127.85,   85.0,   0.98724
"BUSMVAGO10", 12.505, 1,    7266.12,  -32.8,    1.0064, 2,    7139.52, -153.2,   0.98885, 3,    7127.19,   85.0,   0.98715
"BUSMVAGO56", 12.505, 1,    7266.49,  -32.8,    1.0064, 2,    7139.55, -153.2,   0.98886, 3,    7127.52,   85.0,   0.98719
"BUSMVAGO861", 12.505, 3,    7131.65,   85.0,   0.98776, 0, 0, 0, 0, 0, 0, 0, 0
"BUSMVAGO12", 12.505, 1,    7265.65,  -32.8,    1.0063, 2,    7129.76, -153.3,    0.9875, 3,    7122.54,   84.9,    0.9865
"BUSMVAGO51", 12.505, 1,    7266.19,  -32.8,    1.0064, 2,    7134.18, -153.2,   0.98811, 3,    7124.92,   84.9,   0.98683
"BUSMVAGO2171", 12.505, 1,    7266.19,  -32.8,    1.0064, 0, 0, 0, 0, 0, 0, 0, 0
"BUSMVAGO863", 12.505, 3,    7131.53,   85.0,   0.98775, 0, 0, 0, 0, 0, 0, 0, 0
"BUSMVAGO2165", 12.505, 3,    7127.85,   85.0,   0.98724, 0, 0, 0, 0, 0, 0, 0, 0
"BUSMVAGO694", 12.505, 1,    7266.86,  -32.8,    1.0065, 2,    7139.59, -153.2,   0.98886, 3,    7127.85,   85.0,   0.98724
"BUSMVAGO122", 12.505, 1,    7266.08,  -32.8,    1.0064, 2,    7139.51, -153.2,   0.98885, 3,    7127.15,   85.0,   0.98714
"BUSMVAGO11", 12.505, 1,    7265.65,  -32.8,    1.0063, 2,    7129.76, -153.3,    0.9875, 3,    7122.55,   84.9,    0.9865
"BUSMVAGO13", 12.505, 1,    7265.64,  -32.8,    1.0063, 2,    7129.71, -153.3,   0.98749, 3,    7122.56,   84.9,    0.9865
"BUSMVAGO18", 12.505, 1,    7265.46,  -32.9,    1.0063, 2,    7128.14, -153.3,   0.98728, 3,    7121.64,   84.8,   0.98638
"BUSMVAGO14", 12.505, 1,    7265.63,  -32.8,    1.0063, 2,    7129.62, -153.3,   0.98748, 3,    7122.59,   84.9,   0.98651
"BUSMVAGO15", 12.505, 1,    7265.61,  -32.8,    1.0063, 2,    7129.52, -153.3,   0.98747, 3,    7122.62,   84.9,   0.98651
"BUSMVAGO16", 12.505, 1,    7265.62,  -32.8,    1.0063, 2,    7129.52, -153.3,   0.98747, 3,    7122.61,   84.9,   0.98651
"BUSMVAGO2166", 12.505, 2,    7129.51, -153.3,   0.98747, 0, 0, 0, 0, 0, 0, 0, 0
"BUSMVAGO2172", 12.505, 1,     7270.5,  -32.8,     1.007, 0, 0, 0, 0, 0, 0, 0, 0
"BUSMVAGO864", 12.505, 3,    7131.43,   85.0,   0.98773, 0, 0, 0, 0, 0, 0, 0, 0
"BUSMVAGO865", 12.505, 3,    7131.27,   85.0,   0.98771, 0, 0, 0, 0, 0, 0, 0, 0
"BUSMVAGO17", 12.505, 1,    7265.62,  -32.8,    1.0063, 2,    7129.52, -153.3,   0.98747, 3,    7122.61,   84.9,   0.98651
"BUSMVAGO695", 12.505, 1,    7265.62,  -32.8,    1.0063, 2,    7129.52, -153.3,   0.98747, 3,     7122.6,   84.9,   0.98651
"BUSMVAGO866", 12.505, 3,    7131.27,   85.0,   0.98771, 0, 0, 0, 0, 0, 0, 0, 0
"BUSMVAGO2176", 12.505, 3,    7131.27,   85.0,   0.98771, 0, 0, 0, 0, 0, 0, 0, 0
"BUSMVAGO2177", 12.505, 3,    7131.26,   85.0,   0.98771, 0, 0, 0, 0, 0, 0, 0, 0
"BUSMVAGO2178", 12.505, 3,    7131.14,   85.0,   0.98769, 0, 0, 0, 0, 0, 0, 0, 0
"BUSMVAGO19", 12.505, 1,    7265.13,  -32.9,    1.0063, 2,     7125.2, -153.3,   0.98687, 3,    7120.02,   84.8,   0.98615
"BUSMVAGO20", 12.505, 1,    7264.67,  -32.9,    1.0062, 2,    7121.06, -153.3,    0.9863, 3,    7117.75,   84.8,   0.98584
"BUSMVAGO53", 12.505, 1,    7265.13,  -32.9,    1.0063, 2,     7125.2, -153.3,   0.98687, 3,    7120.02,   84.8,   0.98615
"BUSMVAGO21", 12.505, 1,    7264.18,  -32.9,    1.0061, 2,    7116.72, -153.3,    0.9857, 3,    7115.37,   84.7,   0.98551
"BUSMVAGO22", 12.505, 1,     7263.6,  -32.9,     1.006, 2,    7111.63, -153.4,   0.98499, 3,    7112.59,   84.6,   0.98512
"BUSMVAGO23", 12.505, 1,    7264.18,  -32.9,    1.0061, 2,    7116.72, -153.3,    0.9857, 3,    7115.36,   84.7,   0.98551
"BUSMVAGO25", 12.505, 1,       7263,  -32.9,     1.006, 2,    7106.38, -153.4,   0.98426, 3,    7109.75,   84.6,   0.98473
"BUSMVAGO52", 12.505, 1,     7263.6,  -32.9,     1.006, 2,    7111.63, -153.4,   0.98499, 3,    7112.59,   84.6,   0.98512
"BUSMVAGO54", 12.505, 1,     7263.6,  -32.9,     1.006, 2,    7111.63, -153.4,   0.98499, 3,    7112.59,   84.6,   0.98512
"BUSMVAGO55", 12.505, 1,     7263.6,  -32.9,     1.006, 2,    7111.63, -153.4,   0.98499, 3,    7112.59,   84.6,   0.98512
"BUSMVAGO696", 12.505, 1,    7264.18,  -32.9,    1.0061, 2,    7116.72, -153.3,    0.9857, 3,    7115.36,   84.7,   0.98551
"BUSMVAGO24", 12.505, 1,    7262.94,  -32.9,    1.0059, 2,    7105.88, -153.4,   0.98419, 3,    7109.48,   84.6,   0.98469
"BUSMVAGO26", 12.505, 1,    7262.35,  -32.9,    1.0059, 2,    7100.64, -153.4,   0.98347, 3,    7106.66,   84.5,    0.9843
"BUSMVAGO49", 12.505, 1,       7263,  -32.9,     1.006, 2,    7106.38, -153.4,   0.98426, 3,    7109.75,   84.6,   0.98473
"BUSMVAGO50", 12.505, 1,       7263,  -32.9,     1.006, 2,    7106.38, -153.4,   0.98426, 3,    7109.75,   84.6,   0.98473
"BUSMVAGO27", 12.505, 1,     7262.3,  -32.9,    1.0059, 2,    7100.67, -153.4,   0.98347, 3,    7106.64,   84.5,    0.9843
"BUSMVAGO28", 12.505, 1,    7261.92,  -32.9,    1.0058, 2,    7096.61, -153.4,   0.98291, 3,    7104.52,   84.5,   0.98401
"BUSMVAGO29", 12.505, 1,    7262.25,  -32.9,    1.0059, 2,     7100.7, -153.4,   0.98348, 3,    7106.62,   84.5,    0.9843
"BUSMVAGO31", 12.505, 1,    7261.42,  -32.9,    1.0057, 2,    7091.94, -153.5,   0.98226, 3,    7102.05,   84.4,   0.98366
"BUSMVAGO30", 12.505, 1,    7262.19,  -32.9,    1.0058, 2,    7100.74, -153.4,   0.98348, 3,    7106.59,   84.5,   0.98429
"BUSMVAGO34", 12.505, 1,    7262.13,  -32.9,    1.0058, 2,    7100.77, -153.4,   0.98349, 3,    7106.57,   84.5,   0.98429
"BUSMVAGO867", 12.505, 1,    7261.28,  -32.9,    1.0057, 0, 0, 0, 0, 0, 0, 0, 0
"BUSMVAGO43", 12.505, 1,    7261.41,  -32.9,    1.0057, 2,    7091.83, -153.5,   0.98225, 3,       7102,   84.4,   0.98366
"BUSMVAGO871", 12.505, 2,    7091.94, -153.5,   0.98226, 0, 0, 0, 0, 0, 0, 0, 0
"BUSMVAGO33", 12.505, 1,     7261.3,  -32.9,    1.0057, 2,    7090.48, -153.5,   0.98206, 3,    7101.32,   84.4,   0.98356
"BUSMVAGO32", 12.505, 1,    7260.96,  -33.0,    1.0057, 2,    7086.44, -153.5,    0.9815, 3,    7099.29,   84.3,   0.98328
"BUSMVAGO37", 12.505, 1,    7260.45,  -33.0,    1.0056, 2,    7080.89, -153.5,   0.98073, 3,    7096.54,   84.3,    0.9829
"BUSMVAGO44", 12.505, 1,     7261.4,  -32.9,    1.0057, 2,    7091.72, -153.5,   0.98223, 3,    7101.94,   84.4,   0.98365
"BUSMVAGO35", 12.505, 1,    7262.13,  -32.9,    1.0058, 2,    7100.77, -153.4,   0.98349, 3,    7106.57,   84.5,   0.98429
"BUSMVAGO36", 12.505, 1,    7262.13,  -32.9,    1.0058, 2,    7100.77, -153.4,   0.98349, 3,    7106.56,   84.5,   0.98429
"BUSMVAGO869", 12.505, 1,    7261.27,  -32.9,    1.0057, 0, 0, 0, 0, 0, 0, 0, 0
"BUSMVAGO38", 12.505, 1,    7260.06,  -33.0,    1.0055, 2,     7076.5, -153.6,   0.98013, 3,    7094.38,   84.2,    0.9826
"BUSMVAGO2181", 12.505, 1,    7260.43,  -33.0,    1.0056, 0, 0, 0, 0, 0, 0, 0, 0
"BUSMVAGO868", 12.505, 1,    7261.03,  -32.9,    1.0057, 0, 0, 0, 0, 0, 0, 0, 0
"BUSMVAGO870", 12.505, 1,    7260.77,  -32.9,    1.0056, 0, 0, 0, 0, 0, 0, 0, 0
"BUSMVAGO39", 12.505, 1,    7260.09,  -33.0,    1.0056, 2,    7076.48, -153.6,   0.98012, 3,    7094.32,   84.2,   0.98259
"BUSMVAGO40", 12.505, 1,    7259.62,  -33.0,    1.0055, 2,    7072.17, -153.6,   0.97952, 3,     7092.3,   84.1,   0.98231
"BUSMVAGO697", 12.505, 1,    7260.13,  -33.0,    1.0056, 2,     7076.5, -153.6,   0.98013, 3,    7094.13,   84.2,   0.98257
"BUSMVAGO41", 12.505, 1,    7259.13,  -33.0,    1.0054, 2,     7067.2, -153.6,   0.97884, 3,    7089.85,   84.1,   0.98197
"BUSMVAGO42", 12.505, 1,    7259.13,  -33.0,    1.0054, 2,    7067.19, -153.6,   0.97884, 3,    7089.84,   84.1,   0.98197
"BUSMVAGO48", 12.505, 1,    7258.71,  -33.0,    1.0054, 2,    7063.04, -153.6,   0.97826, 3,    7087.82,   84.0,   0.98169
"BUSMVAGO303", 12.505, 1,    7258.92,  -33.0,    1.0054, 2,    7065.12, -153.6,   0.97855, 3,    7088.83,   84.1,   0.98183
"BUSMVAGO45", 12.505, 1,    7259.13,  -33.0,    1.0054, 2,    7067.19, -153.6,   0.97884, 3,    7089.84,   84.1,   0.98197
"BUSMVAGO701", 12.505, 1,    7259.13,  -33.0,    1.0054, 2,     7067.2, -153.6,   0.97884, 3,    7089.83,   84.1,   0.98197
"BUSMVAGO47", 12.505, 1,    7273.14,  -32.7,    1.0074, 2,    7156.48, -153.1,    0.9912, 3,    7142.24,   85.2,   0.98923
"BUSMVAGO179", 12.505, 1,    7272.78,  -32.7,    1.0073, 2,    7155.39, -153.1,   0.99105, 3,    7141.33,   85.2,    0.9891
"BUSMVAGO160", 12.505, 1,     7274.9,  -32.7,    1.0076, 2,    7161.75, -153.1,   0.99193, 3,    7146.62,   85.3,   0.98984
"BUSMVAGO1103", 12.505, 1,    7258.49,  -33.0,    1.0053, 0, 0, 0, 0, 0, 0, 0, 0
"BUSMVAGO259", 12.505, 1,    7258.67,  -33.0,    1.0054, 2,    7060.84, -153.7,   0.97796, 3,    7086.92,   84.0,   0.98157
"BUSMVAGO304", 12.505, 1,    7258.71,  -33.0,    1.0054, 2,    7063.04, -153.6,   0.97826, 3,    7087.82,   84.0,   0.98169
"BUSMVAGO702", 12.505, 1,       7263,  -32.9,     1.006, 2,    7106.38, -153.4,   0.98426, 3,    7109.75,   84.6,   0.98473
"BUSMVAGO58", 12.505, 1,     7265.6,  -32.8,    1.0063, 2,    7139.46, -153.2,   0.98885, 3,    7126.73,   85.0,   0.98708
"BUSMVAGO57", 12.505, 1,    7263.85,  -32.9,    1.0061, 2,    7139.29, -153.2,   0.98882, 3,    7125.15,   85.0,   0.98686
"BUSMVAGO60", 12.505, 1,    7263.12,  -32.9,     1.006, 2,    7139.22, -153.2,   0.98881, 3,     7124.5,   85.0,   0.98677
"BUSMVAGO703", 12.505, 1,    7263.86,  -32.9,    1.0061, 2,    7139.29, -153.2,   0.98882, 3,    7125.13,   85.0,   0.98686
"BUSMVAGO123", 12.505, 1,    7266.04,  -32.8,    1.0064, 2,    7139.51, -153.2,   0.98885, 3,    7127.12,   85.0,   0.98714
"BUSMVAGO59", 12.505, 1,    7262.03,  -32.9,    1.0058, 2,     7139.2, -153.2,   0.98881, 3,    7123.83,   85.0,   0.98668
"BUSMVAGO61", 12.505, 1,    7260.23,  -32.9,    1.0056, 2,    7139.17, -153.2,    0.9888, 3,    7122.71,   85.0,   0.98653
"BUSMVAGO63", 12.505, 1,    7263.19,  -32.9,     1.006, 2,    7139.17, -153.2,   0.98881, 3,    7124.38,   85.0,   0.98676
"BUSMVAGO874", 12.505, 3,     7124.5,   85.0,   0.98677, 0, 0, 0, 0, 0, 0, 0, 0
"BUSMVAGO62", 12.505, 1,     7258.4,  -32.9,    1.0053, 2,     7139.1, -153.2,   0.98879, 3,    7121.55,   85.0,   0.98636
"BUSMVAGO64", 12.505, 1,    7256.33,  -32.9,     1.005, 2,    7139.15, -153.2,    0.9888, 3,    7120.72,   85.0,   0.98625
"BUSMVAGO942", 12.505, 3,    7121.54,   85.0,   0.98636, 0, 0, 0, 0, 0, 0, 0, 0
"BUSMVAGO873", 12.505, 3,    7121.53,   85.0,   0.98636, 0, 0, 0, 0, 0, 0, 0, 0
"BUSMVAGO872", 12.505, 3,    7121.02,   85.0,   0.98629, 0, 0, 0, 0, 0, 0, 0, 0
"BUSMVAGO880", 12.505, 3,    7121.01,   85.0,   0.98629, 0, 0, 0, 0, 0, 0, 0, 0
"BUSMVAGO945", 12.505, 3,    7124.37,   85.0,   0.98675, 0, 0, 0, 0, 0, 0, 0, 0
"BUSMVAGO65", 12.505, 1,    7254.13,  -32.9,    1.0047, 2,    7139.14, -153.2,    0.9888, 3,    7119.82,   85.0,   0.98612
"BUSMVAGO66", 12.505, 1,     7251.9,  -32.9,    1.0044, 2,    7139.13, -153.2,    0.9888, 3,    7118.91,   85.0,     0.986
"BUSMVAGO67", 12.505, 1,     7249.5,  -33.0,    1.0041, 2,    7139.12, -153.2,    0.9888, 3,    7117.92,   85.0,   0.98586
"BUSMVAGO878", 12.505, 1,    7249.31,  -33.0,    1.0041, 0, 0, 0, 0, 0, 0, 0, 0
"BUSMVAGO68", 12.505, 1,    7247.79,  -33.0,    1.0038, 2,    7139.01, -153.2,   0.98878, 3,    7117.23,   85.0,   0.98577
"BUSMVAGO706", 12.505, 1,     7249.5,  -33.0,    1.0041, 2,    7139.13, -153.2,    0.9888, 3,    7117.92,   85.0,   0.98586
"BUSMVAGO876", 12.505, 3,    7124.35,   85.0,   0.98675, 0, 0, 0, 0, 0, 0, 0, 0
"BUSMVAGO875", 12.505, 3,    7123.92,   85.0,   0.98669, 0, 0, 0, 0, 0, 0, 0, 0
"BUSMVAGO877", 12.505, 3,    7123.78,   85.0,   0.98667, 0, 0, 0, 0, 0, 0, 0, 0
"BUSMVAGO883", 12.505, 3,    7123.44,   85.0,   0.98663, 0, 0, 0, 0, 0, 0, 0, 0
"BUSMVAGO884", 12.505, 3,    7123.76,   85.0,   0.98667, 0, 0, 0, 0, 0, 0, 0, 0
"BUSMVAGO886", 12.505, 3,    7123.74,   85.0,   0.98667, 0, 0, 0, 0, 0, 0, 0, 0
"BUSMVAGO885", 12.505, 1,    7249.05,  -33.0,     1.004, 0, 0, 0, 0, 0, 0, 0, 0
"BUSMVAGO879", 12.505, 3,    7120.28,   85.0,   0.98619, 0, 0, 0, 0, 0, 0, 0, 0
"BUSMVAGO881", 12.505, 3,    7120.18,   85.0,   0.98617, 0, 0, 0, 0, 0, 0, 0, 0
"BUSMVAGO888", 12.505, 3,    7120.18,   85.0,   0.98617, 0, 0, 0, 0, 0, 0, 0, 0
"BUSMVAGO882", 12.505, 3,    7120.09,   85.0,   0.98616, 0, 0, 0, 0, 0, 0, 0, 0
"BUSMVAGO944", 12.505, 3,    7120.08,   85.0,   0.98616, 0, 0, 0, 0, 0, 0, 0, 0
"BUSMVAGO889", 12.505, 3,    7123.17,   85.0,   0.98659, 0, 0, 0, 0, 0, 0, 0, 0
"BUSMVAGO2183", 12.505, 3,    7123.75,   85.0,   0.98667, 0, 0, 0, 0, 0, 0, 0, 0
"BUSMVAGO2184", 12.505, 3,    7123.75,   85.0,   0.98667, 0, 0, 0, 0, 0, 0, 0, 0
"BUSMVAGO71", 12.505, 1,    7246.11,  -33.0,    1.0036, 2,    7138.86, -153.3,   0.98876, 3,    7116.55,   85.0,   0.98567
"BUSMVAGO2182", 12.505, 1,    7249.03,  -33.0,     1.004, 0, 0, 0, 0, 0, 0, 0, 0
"BUSMVAGO2185", 12.505, 1,    7249.04,  -33.0,     1.004, 0, 0, 0, 0, 0, 0, 0, 0
"BUSMVAGO2186", 12.505, 1,    7248.86,  -33.0,     1.004, 0, 0, 0, 0, 0, 0, 0, 0
"BUSMVAGO887", 12.505, 3,    7123.67,   85.0,   0.98666, 0, 0, 0, 0, 0, 0, 0, 0
"BUSMVAGO892", 12.505, 3,    7123.62,   85.0,   0.98665, 0, 0, 0, 0, 0, 0, 0, 0
"BUSMVAGO897", 12.505, 3,    7120.05,   85.0,   0.98616, 0, 0, 0, 0, 0, 0, 0, 0
"BUSMVAGO890", 12.505, 3,    7122.93,   85.0,   0.98656, 0, 0, 0, 0, 0, 0, 0, 0
"BUSMVAGO891", 12.505, 3,    7122.77,   85.0,   0.98653, 0, 0, 0, 0, 0, 0, 0, 0
"BUSMVAGO896", 12.505, 3,    7122.71,   85.0,   0.98653, 0, 0, 0, 0, 0, 0, 0, 0
"BUSMVAGO893", 12.505, 3,    7123.58,   85.0,   0.98664, 0, 0, 0, 0, 0, 0, 0, 0
"BUSMVAGO894", 12.505, 3,    7123.52,   85.0,   0.98664, 0, 0, 0, 0, 0, 0, 0, 0
"BUSMVAGO895", 12.505, 3,    7123.52,   85.0,   0.98664, 0, 0, 0, 0, 0, 0, 0, 0
"BUSMVAGO898", 12.505, 3,    7123.52,   85.0,   0.98664, 0, 0, 0, 0, 0, 0, 0, 0
"BUSMVAGO70", 12.505, 1,    7249.51,  -33.0,    1.0041, 2,    7139.13, -153.2,    0.9888, 3,    7117.87,   85.0,   0.98585
"BUSMVAGO69", 12.505, 1,    7249.51,  -33.0,    1.0041, 2,    7139.13, -153.2,    0.9888, 3,    7117.86,   85.0,   0.98585
"BUSMVAGO708", 12.505, 1,    7249.51,  -33.0,    1.0041, 2,    7139.13, -153.2,    0.9888, 3,    7117.88,   85.0,   0.98586
"BUSMVAGO72", 12.505, 1,    7243.92,  -33.0,    1.0033, 2,    7138.68, -153.3,   0.98874, 3,    7115.67,   85.0,   0.98555
"BUSMVAGO73", 12.505, 1,    7241.83,  -33.0,     1.003, 2,    7138.53, -153.3,   0.98872, 3,    7114.91,   85.0,   0.98544
"BUSMVAGO134", 12.505, 1,    7243.92,  -33.0,    1.0033, 2,    7138.68, -153.3,   0.98874, 3,    7115.67,   85.0,   0.98555
"BUSMVAGO900", 12.505, 3,    7119.93,   85.0,   0.98614, 0, 0, 0, 0, 0, 0, 0, 0
"BUSMVAGO904", 12.505, 3,    7123.51,   85.0,   0.98664, 0, 0, 0, 0, 0, 0, 0, 0
"BUSMVAGO75", 12.505, 1,     7240.8,  -33.0,    1.0029, 2,    7138.53, -153.3,   0.98872, 3,    7114.52,   85.0,   0.98539
"BUSMVAGO718", 12.505, 1,    7241.83,  -33.0,     1.003, 2,    7138.52, -153.3,   0.98871, 3,     7114.9,   85.0,   0.98544
"BUSMVAGO899", 12.505, 3,    7119.93,   85.0,   0.98614, 0, 0, 0, 0, 0, 0, 0, 0
"BUSMVAGO902", 12.505, 3,    7119.86,   85.0,   0.98613, 0, 0, 0, 0, 0, 0, 0, 0
"BUSMVAGO901", 12.505, 3,    7119.81,   85.0,   0.98612, 0, 0, 0, 0, 0, 0, 0, 0
"BUSMVAGO903", 12.505, 3,    7119.71,   85.0,   0.98611, 0, 0, 0, 0, 0, 0, 0, 0
"BUSMVAGO905", 12.505, 3,     7119.6,   85.0,   0.98609, 0, 0, 0, 0, 0, 0, 0, 0
"BUSMVAGO907", 12.505, 3,    7119.71,   85.0,   0.98611, 0, 0, 0, 0, 0, 0, 0, 0
"BUSMVAGO906", 12.505, 3,    7119.59,   85.0,   0.98609, 0, 0, 0, 0, 0, 0, 0, 0
"BUSMVAGO946", 12.505, 3,    7119.59,   85.0,   0.98609, 0, 0, 0, 0, 0, 0, 0, 0
"BUSMVAGO74", 12.505, 1,     7240.8,  -33.0,    1.0029, 2,    7138.53, -153.3,   0.98872, 3,    7114.52,   85.0,   0.98539
"BUSMVAGO76", 12.505, 1,    7240.61,  -33.0,    1.0029, 2,    7138.67, -153.3,   0.98874, 3,    7114.41,   85.0,   0.98538
"BUSMVAGO77", 12.505, 1,    7240.21,  -33.0,    1.0028, 2,    7138.44, -153.3,    0.9887, 3,    7114.32,   85.0,   0.98536
"BUSMVAGO79", 12.505, 1,     7240.6,  -33.0,    1.0029, 2,    7138.68, -153.3,   0.98874, 3,    7114.41,   85.0,   0.98537
"BUSMVAGO81", 12.505, 1,    7240.14,  -33.0,    1.0028, 2,    7138.19, -153.3,   0.98867, 3,    7114.43,   85.0,   0.98538
"BUSMVAGO91", 12.505, 1,    7238.73,  -33.0,    1.0026, 2,    7138.42, -153.3,    0.9887, 3,    7113.69,   85.0,   0.98528
"BUSMVAGO78", 12.505, 1,    7240.26,  -33.0,    1.0028, 2,    7138.92, -153.3,   0.98877, 3,    7114.21,   85.0,   0.98535
"BUSMVAGO80", 12.505, 1,    7239.93,  -33.0,    1.0028, 2,    7139.17, -153.3,   0.98881, 3,    7114.01,   85.0,   0.98532
"BUSMVAGO908", 12.505, 1,    7239.72,  -33.0,    1.0027, 0, 0, 0, 0, 0, 0, 0, 0
"BUSMVAGO89", 12.505, 1,    7239.85,  -33.0,    1.0027, 2,    7139.24, -153.3,   0.98881, 3,    7113.92,   85.0,   0.98531
"BUSMVAGO949", 12.505, 3,    7119.71,   85.0,   0.98611, 0, 0, 0, 0, 0, 0, 0, 0
"BUSMVAGO82", 12.505, 1,    7240.09,  -33.0,    1.0028, 2,    7138.01, -153.3,   0.98864, 3,    7114.51,   85.0,   0.98539
"BUSMVAGO83", 12.505, 1,    7240.09,  -33.0,    1.0028, 2,    7137.96, -153.3,   0.98864, 3,     7114.5,   85.0,   0.98539
"BUSMVAGO86", 12.505, 1,     7240.1,  -33.0,    1.0028, 2,    7137.91, -153.3,   0.98863, 3,    7114.48,   85.0,   0.98538
"BUSMVAGO85", 12.505, 1,     7241.8,  -33.0,     1.003, 2,    7138.37, -153.3,   0.98869, 3,    7114.85,   85.0,   0.98544
"BUSMVAGO84", 12.505, 1,    7241.73,  -33.0,     1.003, 2,    7138.22, -153.3,   0.98867, 3,    7114.85,   85.0,   0.98544
"BUSMVAGO93", 12.505, 1,    7241.69,  -33.0,     1.003, 2,    7138.14, -153.3,   0.98866, 3,    7114.85,   85.0,   0.98544
"BUSMVAGO2198", 12.505, 2,    7138.22, -153.3,   0.98867, 0, 0, 0, 0, 0, 0, 0, 0
"BUSMVAGO709", 12.505, 1,    7241.83,  -33.0,     1.003, 2,    7138.52, -153.3,   0.98871, 3,     7114.9,   85.0,   0.98544
"BUSMVAGO88", 12.505, 1,    7240.11,  -33.0,    1.0028, 2,    7137.87, -153.3,   0.98863, 3,    7114.46,   85.0,   0.98538
"BUSMVAGO87", 12.505, 1,    7240.13,  -33.0,    1.0028, 2,    7137.83, -153.3,   0.98862, 3,    7114.45,   85.0,   0.98538
"BUSMVAGO99", 12.505, 1,    7240.12,  -33.0,    1.0028, 2,     7137.8, -153.3,   0.98862, 3,    7114.46,   85.0,   0.98538
"BUSMVAGO722", 12.505, 1,    7240.13,  -33.0,    1.0028, 2,    7137.83, -153.3,   0.98862, 3,    7114.44,   85.0,   0.98538
"BUSMVAGO909", 12.505, 1,     7239.5,  -33.0,    1.0027, 0, 0, 0, 0, 0, 0, 0, 0
"BUSMVAGO90", 12.505, 1,    7239.81,  -33.0,    1.0027, 2,    7139.27, -153.3,   0.98882, 3,    7113.84,   85.0,    0.9853
"BUSMVAGO102", 12.505, 1,    7239.77,  -33.0,    1.0027, 2,     7139.3, -153.3,   0.98882, 3,    7113.75,   85.0,   0.98528
"BUSMVAGO92", 12.505, 1,    7237.44,  -33.1,    1.0024, 2,     7138.4, -153.3,    0.9887, 3,    7113.15,   85.0,    0.9852
"BUSMVAGO132", 12.505, 1,    7238.73,  -33.0,    1.0026, 2,    7138.42, -153.3,    0.9887, 3,    7113.69,   85.0,   0.98528
"BUSMVAGO98", 12.505, 1,    7237.45,  -33.1,    1.0024, 2,     7138.4, -153.3,    0.9887, 3,    7113.14,   85.0,    0.9852
"BUSMVAGO100", 12.505, 1,    7235.84,  -33.1,    1.0022, 2,    7138.57, -153.3,   0.98872, 3,    7112.34,   85.0,   0.98509
"BUSMVAGO723", 12.505, 1,    7237.45,  -33.1,    1.0024, 2,    7138.39, -153.3,    0.9887, 3,    7113.15,   85.0,    0.9852
"BUSMVAGO96", 12.505, 1,    7241.66,  -33.0,     1.003, 2,    7138.05, -153.3,   0.98865, 3,    7114.84,   85.0,   0.98544
"BUSMVAGO916", 12.505, 1,    7241.69,  -33.0,     1.003, 0, 0, 0, 0, 0, 0, 0, 0
"BUSMVAGO95", 12.505, 1,    7237.45,  -33.1,    1.0024, 2,    7138.25, -153.3,   0.98868, 3,    7113.17,   85.0,    0.9852
"BUSMVAGO94", 12.505, 1,     7237.4,  -33.1,    1.0024, 2,    7138.11, -153.3,   0.98866, 3,    7113.25,   85.0,   0.98521
"BUSMVAGO112", 12.505, 1,     7237.4,  -33.1,    1.0024, 2,    7138.11, -153.3,   0.98866, 3,    7113.24,   85.0,   0.98521
"BUSMVAGO126", 12.505, 1,    7237.45,  -33.1,    1.0024, 2,    7138.26, -153.3,   0.98868, 3,    7113.17,   85.0,    0.9852
"BUSMVAGO97", 12.505, 1,     7241.6,  -33.0,     1.003, 2,    7137.92, -153.3,   0.98863, 3,    7114.84,   85.0,   0.98544
"BUSMVAGO711", 12.505, 1,    7241.66,  -33.0,     1.003, 2,    7138.05, -153.3,   0.98865, 3,    7114.84,   85.0,   0.98544
"BUSMVAGO915", 12.505, 1,     7241.6,  -33.0,     1.003, 0, 0, 0, 0, 0, 0, 0, 0
...
"BUSLVAGO1", 0.20785, 1,    118.491,   85.0,   0.98743, 2,    118.506,  -95.0,   0.98755, 0, 0, 0, 0
"BUSLVAGO2", 0.20785, 1,    118.141,   84.6,   0.98451, 2,    118.153,  -95.4,   0.98461, 0, 0, 0, 0
"BUSLVAGO3", 0.20785, 1,     118.43,   85.0,   0.98691, 2,    118.445,  -95.0,   0.98704, 0, 0, 0, 0
"BUSLVAGO4", 0.20785, 1,    118.973,  -33.7,   0.99144, 2,    119.458,  146.4,   0.99548, 0, 0, 0, 0
"BUSLVAGO5", 0.20785, 1,    116.513, -154.0,   0.97094, 2,    116.798,   26.0,   0.97332, 0, 0, 0, 0
"BUSLVAGO6", 0.20785, 1,    118.078,   84.5,   0.98398, 2,    118.093,  -95.5,    0.9841, 0, 0, 0, 0
"BUSLVAGO7", 0.20785, 1,    118.494,   85.0,   0.98745, 2,    118.508,  -95.0,   0.98756, 0, 0, 0, 0
"BUSLVAGO8", 0.20785, 1,    117.258,   84.6,   0.97715, 2,     117.34,  -95.4,   0.97783, 0, 0, 0, 0
"BUSLVAGO9", 0.20785, 1,    117.378,   83.9,   0.97815, 2,     117.39,  -96.1,   0.97825, 0, 0, 0, 0
"BUSLVAGO10", 0.20785, 1,    117.413,   83.9,   0.97844, 2,    117.425,  -96.1,   0.97854, 0, 0, 0, 0
"BUSLVAGO11", 0.20785, 1,    118.393, -153.3,   0.98661, 2,    118.405,   26.7,   0.98671, 0, 0, 0, 0
"BUSLVAGO12", 0.20785, 1,    118.282, -153.4,   0.98568, 2,    118.296,   26.6,    0.9858, 0, 0, 0, 0
"BUSLVAGO13", 0.20785, 1,    120.735,  -32.8,    1.0061, 2,     120.75,  147.2,    1.0062, 0, 0, 0, 0
"BUSLVAGO14", 0.20785, 1,    120.523,  -33.0,    1.0044, 2,    120.538,  147.0,    1.0045, 0, 0, 0, 0
"BUSLVAGO15", 0.20785, 1,    120.628,  -32.9,    1.0052, 2,     120.64,  147.1,    1.0053, 0, 0, 0, 0
"BUSLVAGO16", 0.20785, 1,    118.434,   85.0,   0.98695, 2,     118.45,  -95.0,   0.98709, 0, 0, 0, 0
"BUSLVAGO17", 0.20785, 1,    116.563,   83.9,   0.97136, 2,    116.713,  -96.1,   0.97261, 0, 0, 0, 0
"BUSLVAGO18", 0.20785, 1,    118.224,   84.7,    0.9852, 2,    118.239,  -95.3,   0.98532, 0, 0, 0, 0
"BUSLVAGO19", 0.20785, 1,    118.244,   84.8,   0.98537, 2,    118.257,  -95.2,   0.98547, 0, 0, 0, 0
"BUSLVAGO20", 0.20785, 1,      118.1, -153.3,   0.98416, 2,    118.249,   26.7,   0.98541, 0, 0, 0, 0
"BUSLVAGO21", 0.20785, 1,    118.493,   85.0,   0.98744, 2,    118.507,  -95.0,   0.98756, 0, 0, 0, 0
"BUSLVAGO22", 0.20785, 1,    119.931,  -33.2,   0.99943, 2,     120.25,  146.8,    1.0021, 0, 0, 0, 0
"BUSLVAGO23", 0.20785, 1,    118.287,   84.9,   0.98573, 2,    118.302,  -95.1,   0.98585, 0, 0, 0, 0
"BUSLVAGO24", 0.20785, 1,    118.397,   85.0,   0.98664, 2,    118.411,  -95.0,   0.98676, 0, 0, 0, 0
"BUSLVAGO25", 0.20785, 1,    118.135,   84.8,   0.98446, 2,    118.149,  -95.2,   0.98458, 0, 0, 0, 0
"BUSLVAGO26", 0.20785, 1,    118.283, -153.4,   0.98569, 2,    118.298,   26.6,   0.98581, 0, 0, 0, 0
"BUSLVAGO27", 0.20785, 1,    118.464, -153.2,    0.9872, 2,    118.479,   26.7,   0.98732, 0, 0, 0, 0
"BUSLVAGO28", 0.20785, 1,    118.224,   84.7,    0.9852, 2,    118.239,  -95.3,   0.98532, 0, 0, 0, 0
"BUSLVAGO29", 0.20785, 1,    117.723,   84.1,   0.98103, 2,    117.738,  -95.9,   0.98115, 0, 0, 0, 0
"BUSLVAGO30", 0.20785, 1,    117.841, -153.5,   0.98201, 2,    117.854,   26.5,   0.98212, 0, 0, 0, 0
"BUSLVAGO31", 0.20785, 1,    118.432,   85.0,   0.98693, 2,    118.446,  -95.0,   0.98705, 0, 0, 0, 0
"BUSLVAGO32", 0.20785, 1,    120.444,  -33.0,    1.0037, 2,    120.457,  147.0,    1.0038, 0, 0, 0, 0
"BUSLVAGO33", 0.20785, 1,    118.138,   84.6,   0.98449, 2,    118.151,  -95.4,   0.98459, 0, 0, 0, 0
"BUSLVAGO34", 0.20785, 1,    116.926,   84.6,   0.97438, 2,    117.009,  -95.4,   0.97507, 0, 0, 0, 0
"BUSLVAGO35", 0.20785, 1,    118.306,   85.0,   0.98588, 2,    118.319,  -95.0,   0.98599, 0, 0, 0, 0
"BUSLVAGO36", 0.20785, 1,    118.302,   85.0,   0.98585, 2,    118.315,  -95.0,   0.98596, 0, 0, 0, 0
"BUSLVAGO37", 0.20785, 1,    118.298,   84.9,   0.98582, 2,    118.312,  -95.1,   0.98594, 0, 0, 0, 0
"BUSLVAGO38", 0.20785, 1,    111.949, -154.9,   0.93291, 2,    111.965,   25.1,   0.93304, 0, 0, 0, 0
"BUSLVAGO39", 0.20785, 1,    118.279, -153.4,   0.98566, 2,    118.292,   26.5,   0.98576, 0, 0, 0, 0
"BUSLVAGO40", 0.20785, 1,    117.697,   84.6,   0.98081, 2,    117.766,  -95.4,   0.98139, 0, 0, 0, 0
"BUSLVAGO41", 0.20785, 1,    120.297,  -33.0,    1.0025, 2,    120.312,  147.0,    1.0026, 0, 0, 0, 0
"BUSLVAGO42", 0.20785, 1,    120.264,  -33.1,    1.0022, 2,    120.278,  146.9,    1.0023, 0, 0, 0, 0
"BUSLVAGO43", 0.20785, 1,    120.262,  -33.1,    1.0022, 2,    120.277,  146.9,    1.0023, 0, 0, 0, 0
"BUSLVAGO44", 0.20785, 1,    117.906,   84.8,   0.98255, 2,    118.008,  -95.2,    0.9834, 0, 0, 0, 0
"BUSLVAGO45", 0.20785, 1,    118.024,   84.9,   0.98354, 2,    118.038,  -95.1,   0.98365, 0, 0, 0, 0
"BUSLVAGO46", 0.20785, 1,    118.216,   85.0,   0.98513, 2,     118.23,  -95.0,   0.98525, 0, 0, 0, 0
"BUSLVAGO47", 0.20785, 1,     118.31,   85.0,   0.98592, 2,    118.323,  -95.0,   0.98603, 0, 0, 0, 0
"BUSLVAGO48", 0.20785, 1,     117.25,   84.4,   0.97708, 2,    117.301,  -95.6,   0.97751, 0, 0, 0, 0
"BUSLVAGO49", 0.20785, 1,    120.323,  -33.0,    1.0027, 2,    120.338,  147.0,    1.0028, 0, 0, 0, 0
"BUSLVAGO50", 0.20785, 1,    114.787, -154.6,   0.95656, 2,    115.324,   25.5,   0.96104, 0, 0, 0, 0
"BUSLVAGO51", 0.20785, 1,    119.547,  -33.3,   0.99622, 2,    119.562,  146.7,   0.99635, 0, 0, 0, 0
"BUSLVAGO52", 0.20785, 1,    118.326,   85.0,   0.98605, 2,    118.338,  -95.0,   0.98615, 0, 0, 0, 0
"BUSLVAGO53", 0.20785, 1,      118.3,   85.0,   0.98584, 2,    118.315,  -95.0,   0.98596, 0, 0, 0, 0
"BUSLVAGO54", 0.20785, 1,    116.695,   84.4,   0.97246, 2,     116.71,  -95.6,   0.97258, 0, 0, 0, 0
"BUSLVAGO55", 0.20785, 1,    120.217,  -33.1,    1.0018, 2,    120.232,  146.9,    1.0019, 0, 0, 0, 0
"BUSLVAGO56", 0.20785, 1,    117.858,   84.8,   0.98215, 2,     117.87,  -95.2,   0.98225, 0, 0, 0, 0
"BUSLVAGO57", 0.20785, 1,    118.187,   85.0,    0.9849, 2,    118.202,  -95.0,   0.98502, 0, 0, 0, 0
"BUSLVAGO58", 0.20785, 1,    118.324,   85.0,   0.98603, 2,    118.337,  -95.0,   0.98614, 0, 0, 0, 0
"BUSLVAGO59", 0.20785, 1,    120.323,  -33.0,    1.0027, 2,    120.338,  147.0,    1.0028, 0, 0, 0, 0
"BUSLVAGO60", 0.20785, 1,    120.087,  -33.2,    1.0007, 2,    120.099,  146.8,    1.0008, 0, 0, 0, 0
"BUSLVAGO61", 0.20785, 1,    119.891,  -33.2,   0.99909, 2,    119.945,  146.8,   0.99954, 0, 0, 0, 0
"BUSLVAGO62", 0.20785, 1,     118.27, -153.4,   0.98559, 2,    118.283,   26.6,    0.9857, 0, 0, 0, 0
"BUSLVAGO63", 0.20785, 1,    119.977,  -33.2,   0.99981, 2,    120.062,  146.8,    1.0005, 0, 0, 0, 0
"BUSLVAGO64", 0.20785, 1,    118.308, -153.4,    0.9859, 2,     118.32,   26.6,     0.986, 0, 0, 0, 0
"BUSLVAGO65", 0.20785, 1,     120.29,  -33.0,    1.0024, 2,    120.303,  147.0,    1.0025, 0, 0, 0, 0
"BUSLVAGO66", 0.20785, 1,    118.304,   85.0,   0.98587, 2,    118.317,  -95.0,   0.98598, 0, 0, 0, 0
"BUSLVAGO67", 0.20785, 1,    119.717,  -33.2,   0.99764, 2,    119.732,  146.7,   0.99777, 0, 0, 0, 0
"BUSLVAGO68", 0.20785, 1,    119.775,  -33.3,   0.99813, 2,    119.788,  146.7,   0.99823, 0, 0, 0, 0
"BUSLVAGO69", 0.20785, 1,     118.31,   85.0,   0.98591, 2,    118.322,  -95.0,   0.98601, 0, 0, 0, 0
"BUSLVAGO70", 0.20785, 1,    117.641,   84.6,   0.98034, 2,    117.692,  -95.4,   0.98077, 0, 0, 0, 0
"BUSLVAGO71", 0.20785, 1,    119.478,  -33.4,   0.99565, 2,    119.491,  146.6,   0.99576, 0, 0, 0, 0
"BUSLVAGO72", 0.20785, 1,    120.108,  -33.1,    1.0009, 2,     120.12,  146.9,     1.001, 0, 0, 0, 0
"BUSLVAGO73", 0.20785, 1,    120.037,  -33.2,    1.0003, 2,    120.049,  146.8,    1.0004, 0, 0, 0, 0
"BUSLVAGO74", 0.20785, 1,    120.322,  -33.0,    1.0027, 2,    120.337,  147.0,    1.0028, 0, 0, 0, 0
"BUSLVAGO75", 0.20785, 1,    118.066, -153.5,   0.98389, 2,    118.079,   26.5,   0.98399, 0, 0, 0, 0
"BUSLVAGO76", 0.20785, 1,    118.302,   85.0,   0.98585, 2,    118.314,  -95.0,   0.98595, 0, 0, 0, 0
"BUSLVAGO77", 0.20785, 1,    119.933,  -33.2,   0.99944, 2,    119.946,  146.8,   0.99955, 0, 0, 0, 0
"BUSLVAGO78", 0.20785, 1,    120.217,  -33.1,    1.0018, 2,     120.23,  146.9,    1.0019, 0, 0, 0, 0
"BUSLVAGO79", 0.20785, 1,    118.195,   85.0,   0.98496, 2,    118.208,  -95.0,   0.98507, 0, 0, 0, 0
"BUSLVAGO80", 0.20785, 1,    116.531,   84.0,   0.97109, 2,    116.601,  -96.0,   0.97167, 0, 0, 0, 0
"BUSLVAGO81", 0.20785, 1,    118.302,   85.0,   0.98585, 2,    118.315,  -95.0,   0.98596, 0, 0, 0, 0
...